/*--------------------------------*- C++ -*----------------------------------*\\
/*--------------------------------*- C++ -*----------------------------------*\\
| =========                 |                                                 |
| \\\\      /  F ield         | OpenFOAM: The Open Source CFD Toolbox           |
|  \\\\    /   O peration     | Version:  v2012                                 |
|   \\\\  /    A nd           | Website:  www.openfoam.com                      |
|    \\\\/     M anipulation  |                                                 |
\\*---------------------------------------------------------------------------*/
FoamFile
{
    version     2.0;
    format      ascii;
    class       dictionary;
    object      blockMeshDict;
}
// * * * * * * * * * * * * * * * * * * * * * * * * * * * * * * * * * * * * * //

scale   0.01;

xmin -1;
xmax 5;
ymin 0;
ymax 0.5;
zmin 0;
zmax 0.1;

vertices
(
    (-1.00000000 -0.24599649 0.00000000)
    (4.00000000 0.15618099 0.00000000)
    (4.00000000 0.65618099 0.00000000)
    (-1.00000000 0.25400351 0.00000000)
    (-1.00000000 -0.24599649 0.10000000)
    (4.00000000 0.15618099 0.10000000)
    (4.00000000 0.65618099 0.10000000)
    (-1.00000000 0.25400351 0.10000000)
);

blocks
(
    hex (0 1 2 3 4 5 6 7) (200 20 1) simpleGrading (1 1 1)
);

edges
(
	polyLine 0 1
	(
		(-1.00000000 -0.24599649 0.00000000)
		(-0.98000000 -0.24599649 0.00000000)
		(-0.96000000 -0.24599649 0.00000000)
		(-0.94000000 -0.24599649 0.00000000)
		(-0.92000000 -0.24599649 0.00000000)
		(-0.90000000 -0.24599649 0.00000000)
		(-0.88000000 -0.24599649 0.00000000)
		(-0.86000000 -0.24599649 0.00000000)
		(-0.84000000 -0.24599649 0.00000000)
		(-0.82000000 -0.24599649 0.00000000)
		(-0.80000000 -0.24599649 0.00000000)
		(-0.78000000 -0.24599649 0.00000000)
		(-0.76000000 -0.24599649 0.00000000)
		(-0.74000000 -0.24599649 0.00000000)
		(-0.72000000 -0.24599649 0.00000000)
		(-0.70000000 -0.24599649 0.00000000)
		(-0.68000000 -0.24599649 0.00000000)
		(-0.66000000 -0.24599649 0.00000000)
		(-0.64000000 -0.24599649 0.00000000)
		(-0.62000000 -0.24599649 0.00000000)
		(-0.60000000 -0.24599649 0.00000000)
		(-0.58000000 -0.24599649 0.00000000)
		(-0.56000000 -0.24599649 0.00000000)
		(-0.54000000 -0.24599649 0.00000000)
		(-0.52000000 -0.24599649 0.00000000)
		(-0.50000000 -0.24599649 0.00000000)
		(-0.48000000 -0.24599649 0.00000000)
		(-0.46000000 -0.24599649 0.00000000)
		(-0.44000000 -0.24599649 0.00000000)
		(-0.42000000 -0.24599649 0.00000000)
		(-0.40000000 -0.24599649 0.00000000)
		(-0.38000000 -0.24599649 0.00000000)
		(-0.36000000 -0.24599649 0.00000000)
		(-0.34000000 -0.24599649 0.00000000)
		(-0.32000000 -0.24599649 0.00000000)
		(-0.30000000 -0.24599649 0.00000000)
		(-0.28000000 -0.24599649 0.00000000)
		(-0.26000000 -0.24599649 0.00000000)
		(-0.24000000 -0.24599649 0.00000000)
		(-0.22000000 -0.24599649 0.00000000)
		(-0.20000000 -0.24599649 0.00000000)
		(-0.18000000 -0.24599649 0.00000000)
		(-0.16000000 -0.24599649 0.00000000)
		(-0.14000000 -0.24599649 0.00000000)
		(-0.12000000 -0.24599649 0.00000000)
		(-0.10000000 -0.24599649 0.00000000)
		(-0.08162011 -0.24602027 0.00000000)
		(-0.06324022 -0.24609161 0.00000000)
		(-0.04486034 -0.24621052 0.00000000)
		(-0.02648045 -0.24637699 0.00000000)
		(-0.00810056 -0.24659102 0.00000000)
		(0.01027933 -0.24685262 0.00000000)
		(0.02865922 -0.24716178 0.00000000)
		(0.04703911 -0.24751850 0.00000000)
		(0.06541899 -0.24792278 0.00000000)
		(0.08379888 -0.24837463 0.00000000)
		(0.10055866 -0.24627888 0.00000000)
		(0.11731844 -0.24333595 0.00000000)
		(0.13407821 -0.23955596 0.00000000)
		(0.15083799 -0.23495192 0.00000000)
		(0.16759777 -0.22953967 0.00000000)
		(0.18435754 -0.22333781 0.00000000)
		(0.20111732 -0.21636770 0.00000000)
		(0.21787709 -0.20865329 0.00000000)
		(0.23463687 -0.20022114 0.00000000)
		(0.25139665 -0.19110024 0.00000000)
		(0.26815642 -0.18132198 0.00000000)
		(0.28491620 -0.17091998 0.00000000)
		(0.30167598 -0.15993003 0.00000000)
		(0.31843575 -0.14838994 0.00000000)
		(0.33519553 -0.13633939 0.00000000)
		(0.35195531 -0.12381985 0.00000000)
		(0.36871508 -0.11087438 0.00000000)
		(0.38547486 -0.09754751 0.00000000)
		(0.40223464 -0.08388509 0.00000000)
		(0.41899441 -0.06993410 0.00000000)
		(0.43575419 -0.05574255 0.00000000)
		(0.45251397 -0.04135925 0.00000000)
		(0.46927374 -0.02683368 0.00000000)
		(0.48603352 -0.01221580 0.00000000)
		(0.50279330 0.00244410 0.00000000)
		(0.51955307 0.01709559 0.00000000)
		(0.53631285 0.03168827 0.00000000)
		(0.55307263 0.04617195 0.00000000)
		(0.56983240 0.06049680 0.00000000)
		(0.58659218 0.07461355 0.00000000)
		(0.60335196 0.08847363 0.00000000)
		(0.62011173 0.10202937 0.00000000)
		(0.63687151 0.11523414 0.00000000)
		(0.65363128 0.12804252 0.00000000)
		(0.67039106 0.14041043 0.00000000)
		(0.68715084 0.15229535 0.00000000)
		(0.70391061 0.16365638 0.00000000)
		(0.72067039 0.17445445 0.00000000)
		(0.73743017 0.18465241 0.00000000)
		(0.75418994 0.19421518 0.00000000)
		(0.77094972 0.20310987 0.00000000)
		(0.78770950 0.21130587 0.00000000)
		(0.80446927 0.21877501 0.00000000)
		(0.82122905 0.22549157 0.00000000)
		(0.83798883 0.23143246 0.00000000)
		(0.85474860 0.23657724 0.00000000)
		(0.87150838 0.24090822 0.00000000)
		(0.88826816 0.24441049 0.00000000)
		(0.90502793 0.24707201 0.00000000)
		(0.92178771 0.24888362 0.00000000)
		(0.93854749 0.24983909 0.00000000)
		(0.95530726 0.24993514 0.00000000)
		(0.97206704 0.24917143 0.00000000)
		(0.98882682 0.24755060 0.00000000)
		(1.00558659 0.24507820 0.00000000)
		(1.02234637 0.24176276 0.00000000)
		(1.03910615 0.23761568 0.00000000)
		(1.05586592 0.23265122 0.00000000)
		(1.07262570 0.22688645 0.00000000)
		(1.08938547 0.22034122 0.00000000)
		(1.10614525 0.21303803 0.00000000)
		(1.12290503 0.20500201 0.00000000)
		(1.13966480 0.19626080 0.00000000)
		(1.15642458 0.18684446 0.00000000)
		(1.17318436 0.17678540 0.00000000)
		(1.18994413 0.16611821 0.00000000)
		(1.20670391 0.15487959 0.00000000)
		(1.22346369 0.14310819 0.00000000)
		(1.24022346 0.13084451 0.00000000)
		(1.25698324 0.11813074 0.00000000)
		(1.27374302 0.10501061 0.00000000)
		(1.29050279 0.09152925 0.00000000)
		(1.30726257 0.07773304 0.00000000)
		(1.32402235 0.06366944 0.00000000)
		(1.34078212 0.04938681 0.00000000)
		(1.35754190 0.03493430 0.00000000)
		(1.37430168 0.02036162 0.00000000)
		(1.39106145 0.00571889 0.00000000)
		(1.40782123 -0.00894350 0.00000000)
		(1.42458101 -0.02357514 0.00000000)
		(1.44134078 -0.03812567 0.00000000)
		(1.45810056 -0.05254506 0.00000000)
		(1.47486034 -0.06678369 0.00000000)
		(1.49162011 -0.08079260 0.00000000)
		(1.50837989 -0.09452358 0.00000000)
		(1.52513966 -0.10792942 0.00000000)
		(1.54189944 -0.12096398 0.00000000)
		(1.55865922 -0.13358244 0.00000000)
		(1.57541899 -0.14574138 0.00000000)
		(1.59217877 -0.15739899 0.00000000)
		(1.60893855 -0.16851516 0.00000000)
		(1.62569832 -0.17905165 0.00000000)
		(1.64245810 -0.18897221 0.00000000)
		(1.65921788 -0.19824273 0.00000000)
		(1.67597765 -0.20683131 0.00000000)
		(1.69273743 -0.21470840 0.00000000)
		(1.70949721 -0.22184692 0.00000000)
		(1.72625698 -0.22822230 0.00000000)
		(1.74301676 -0.23381262 0.00000000)
		(1.75977654 -0.23859864 0.00000000)
		(1.77653631 -0.24256390 0.00000000)
		(1.79329609 -0.24569476 0.00000000)
		(1.81005587 -0.24798045 0.00000000)
		(1.82681564 -0.24941311 0.00000000)
		(1.84357542 -0.24998781 0.00000000)
		(1.86033520 -0.24970257 0.00000000)
		(1.87709497 -0.24855838 0.00000000)
		(1.89385475 -0.24655916 0.00000000)
		(1.91061453 -0.24371180 0.00000000)
		(1.92737430 -0.24002610 0.00000000)
		(1.94413408 -0.23551472 0.00000000)
		(1.96089385 -0.23019319 0.00000000)
		(1.97765363 -0.22407982 0.00000000)
		(1.99441341 -0.21719563 0.00000000)
		(2.01117318 -0.20956430 0.00000000)
		(2.02793296 -0.20121209 0.00000000)
		(2.04469274 -0.19216773 0.00000000)
		(2.06145251 -0.18246233 0.00000000)
		(2.07821229 -0.17212927 0.00000000)
		(2.09497207 -0.16120410 0.00000000)
		(2.11173184 -0.14972441 0.00000000)
		(2.12849162 -0.13772967 0.00000000)
		(2.14525140 -0.12526115 0.00000000)
		(2.16201117 -0.11236175 0.00000000)
		(2.17877095 -0.09907583 0.00000000)
		(2.19553073 -0.08544910 0.00000000)
		(2.21229050 -0.07152843 0.00000000)
		(2.22905028 -0.05736171 0.00000000)
		(2.24581006 -0.04299767 0.00000000)
		(2.26256983 -0.02848572 0.00000000)
		(2.27932961 -0.01387578 0.00000000)
		(2.29608939 0.00078188 0.00000000)
		(2.31284916 0.01543686 0.00000000)
		(2.32960894 0.03003874 0.00000000)
		(2.34636872 0.04453729 0.00000000)
		(2.36312849 0.05888263 0.00000000)
		(2.37988827 0.07302542 0.00000000)
		(2.39664804 0.08691701 0.00000000)
		(2.41340782 0.10050961 0.00000000)
		(2.43016760 0.11375647 0.00000000)
		(2.44692737 0.12661202 0.00000000)
		(2.46368715 0.13903203 0.00000000)
		(2.48044693 0.15097378 0.00000000)
		(2.49720670 0.16239619 0.00000000)
		(2.51396648 0.17325998 0.00000000)
		(2.53072626 0.18352776 0.00000000)
		(2.54748603 0.19316422 0.00000000)
		(2.56424581 0.20213622 0.00000000)
		(2.58100559 0.21041288 0.00000000)
		(2.59776536 0.21796574 0.00000000)
		(2.61452514 0.22476882 0.00000000)
		(2.63128492 0.23079871 0.00000000)
		(2.64804469 0.23603467 0.00000000)
		(2.66480447 0.24045869 0.00000000)
		(2.68156425 0.24405556 0.00000000)
		(2.69832402 0.24681289 0.00000000)
		(2.71508380 0.24872121 0.00000000)
		(2.73184358 0.24977394 0.00000000)
		(2.74860335 0.24996748 0.00000000)
		(2.76536313 0.24930115 0.00000000)
		(2.78212291 0.24777724 0.00000000)
		(2.79888268 0.24540100 0.00000000)
		(2.81564246 0.24218060 0.00000000)
		(2.83240223 0.23812711 0.00000000)
		(2.84916201 0.23325450 0.00000000)
		(2.86592179 0.22757950 0.00000000)
		(2.88268156 0.22112165 0.00000000)
		(2.89944134 0.21390316 0.00000000)
		(2.91620112 0.20594886 0.00000000)
		(2.93296089 0.19728612 0.00000000)
		(2.95166480 0.18947614 0.00000000)
		(2.97036872 0.18248827 0.00000000)
		(2.98907263 0.17632250 0.00000000)
		(3.00777654 0.17097883 0.00000000)
		(3.02648045 0.16645727 0.00000000)
		(3.04518436 0.16275781 0.00000000)
		(3.06388827 0.15988045 0.00000000)
		(3.08259218 0.15782519 0.00000000)
		(3.10129609 0.15659204 0.00000000)
		(3.12000000 0.15618099 0.00000000)
		(3.14000000 0.15618099 0.00000000)
		(3.16000000 0.15618099 0.00000000)
		(3.18000000 0.15618099 0.00000000)
		(3.20000000 0.15618099 0.00000000)
		(3.22000000 0.15618099 0.00000000)
		(3.24000000 0.15618099 0.00000000)
		(3.26000000 0.15618099 0.00000000)
		(3.28000000 0.15618099 0.00000000)
		(3.30000000 0.15618099 0.00000000)
		(3.32000000 0.15618099 0.00000000)
		(3.34000000 0.15618099 0.00000000)
		(3.36000000 0.15618099 0.00000000)
		(3.38000000 0.15618099 0.00000000)
		(3.40000000 0.15618099 0.00000000)
		(3.42000000 0.15618099 0.00000000)
		(3.44000000 0.15618099 0.00000000)
		(3.46000000 0.15618099 0.00000000)
		(3.48000000 0.15618099 0.00000000)
		(3.50000000 0.15618099 0.00000000)
		(3.52000000 0.15618099 0.00000000)
		(3.54000000 0.15618099 0.00000000)
		(3.56000000 0.15618099 0.00000000)
		(3.58000000 0.15618099 0.00000000)
		(3.60000000 0.15618099 0.00000000)
		(3.62000000 0.15618099 0.00000000)
		(3.64000000 0.15618099 0.00000000)
		(3.66000000 0.15618099 0.00000000)
		(3.68000000 0.15618099 0.00000000)
		(3.70000000 0.15618099 0.00000000)
		(3.72000000 0.15618099 0.00000000)
		(3.74000000 0.15618099 0.00000000)
		(3.76000000 0.15618099 0.00000000)
		(3.78000000 0.15618099 0.00000000)
		(3.80000000 0.15618099 0.00000000)
		(3.82000000 0.15618099 0.00000000)
		(3.84000000 0.15618099 0.00000000)
		(3.86000000 0.15618099 0.00000000)
		(3.88000000 0.15618099 0.00000000)
		(3.90000000 0.15618099 0.00000000)
		(3.92000000 0.15618099 0.00000000)
		(3.94000000 0.15618099 0.00000000)
		(3.96000000 0.15618099 0.00000000)
		(3.98000000 0.15618099 0.00000000)
		(4.00000000 0.15618099 0.00000000)
	)
	polyLine 4 5
	(
		(-1.00000000 -0.24599649 0.10000000)
		(-0.98000000 -0.24599649 0.10000000)
		(-0.96000000 -0.24599649 0.10000000)
		(-0.94000000 -0.24599649 0.10000000)
		(-0.92000000 -0.24599649 0.10000000)
		(-0.90000000 -0.24599649 0.10000000)
		(-0.88000000 -0.24599649 0.10000000)
		(-0.86000000 -0.24599649 0.10000000)
		(-0.84000000 -0.24599649 0.10000000)
		(-0.82000000 -0.24599649 0.10000000)
		(-0.80000000 -0.24599649 0.10000000)
		(-0.78000000 -0.24599649 0.10000000)
		(-0.76000000 -0.24599649 0.10000000)
		(-0.74000000 -0.24599649 0.10000000)
		(-0.72000000 -0.24599649 0.10000000)
		(-0.70000000 -0.24599649 0.10000000)
		(-0.68000000 -0.24599649 0.10000000)
		(-0.66000000 -0.24599649 0.10000000)
		(-0.64000000 -0.24599649 0.10000000)
		(-0.62000000 -0.24599649 0.10000000)
		(-0.60000000 -0.24599649 0.10000000)
		(-0.58000000 -0.24599649 0.10000000)
		(-0.56000000 -0.24599649 0.10000000)
		(-0.54000000 -0.24599649 0.10000000)
		(-0.52000000 -0.24599649 0.10000000)
		(-0.50000000 -0.24599649 0.10000000)
		(-0.48000000 -0.24599649 0.10000000)
		(-0.46000000 -0.24599649 0.10000000)
		(-0.44000000 -0.24599649 0.10000000)
		(-0.42000000 -0.24599649 0.10000000)
		(-0.40000000 -0.24599649 0.10000000)
		(-0.38000000 -0.24599649 0.10000000)
		(-0.36000000 -0.24599649 0.10000000)
		(-0.34000000 -0.24599649 0.10000000)
		(-0.32000000 -0.24599649 0.10000000)
		(-0.30000000 -0.24599649 0.10000000)
		(-0.28000000 -0.24599649 0.10000000)
		(-0.26000000 -0.24599649 0.10000000)
		(-0.24000000 -0.24599649 0.10000000)
		(-0.22000000 -0.24599649 0.10000000)
		(-0.20000000 -0.24599649 0.10000000)
		(-0.18000000 -0.24599649 0.10000000)
		(-0.16000000 -0.24599649 0.10000000)
		(-0.14000000 -0.24599649 0.10000000)
		(-0.12000000 -0.24599649 0.10000000)
		(-0.10000000 -0.24599649 0.10000000)
		(-0.08162011 -0.24602027 0.10000000)
		(-0.06324022 -0.24609161 0.10000000)
		(-0.04486034 -0.24621052 0.10000000)
		(-0.02648045 -0.24637699 0.10000000)
		(-0.00810056 -0.24659102 0.10000000)
		(0.01027933 -0.24685262 0.10000000)
		(0.02865922 -0.24716178 0.10000000)
		(0.04703911 -0.24751850 0.10000000)
		(0.06541899 -0.24792278 0.10000000)
		(0.08379888 -0.24837463 0.10000000)
		(0.10055866 -0.24627888 0.10000000)
		(0.11731844 -0.24333595 0.10000000)
		(0.13407821 -0.23955596 0.10000000)
		(0.15083799 -0.23495192 0.10000000)
		(0.16759777 -0.22953967 0.10000000)
		(0.18435754 -0.22333781 0.10000000)
		(0.20111732 -0.21636770 0.10000000)
		(0.21787709 -0.20865329 0.10000000)
		(0.23463687 -0.20022114 0.10000000)
		(0.25139665 -0.19110024 0.10000000)
		(0.26815642 -0.18132198 0.10000000)
		(0.28491620 -0.17091998 0.10000000)
		(0.30167598 -0.15993003 0.10000000)
		(0.31843575 -0.14838994 0.10000000)
		(0.33519553 -0.13633939 0.10000000)
		(0.35195531 -0.12381985 0.10000000)
		(0.36871508 -0.11087438 0.10000000)
		(0.38547486 -0.09754751 0.10000000)
		(0.40223464 -0.08388509 0.10000000)
		(0.41899441 -0.06993410 0.10000000)
		(0.43575419 -0.05574255 0.10000000)
		(0.45251397 -0.04135925 0.10000000)
		(0.46927374 -0.02683368 0.10000000)
		(0.48603352 -0.01221580 0.10000000)
		(0.50279330 0.00244410 0.10000000)
		(0.51955307 0.01709559 0.10000000)
		(0.53631285 0.03168827 0.10000000)
		(0.55307263 0.04617195 0.10000000)
		(0.56983240 0.06049680 0.10000000)
		(0.58659218 0.07461355 0.10000000)
		(0.60335196 0.08847363 0.10000000)
		(0.62011173 0.10202937 0.10000000)
		(0.63687151 0.11523414 0.10000000)
		(0.65363128 0.12804252 0.10000000)
		(0.67039106 0.14041043 0.10000000)
		(0.68715084 0.15229535 0.10000000)
		(0.70391061 0.16365638 0.10000000)
		(0.72067039 0.17445445 0.10000000)
		(0.73743017 0.18465241 0.10000000)
		(0.75418994 0.19421518 0.10000000)
		(0.77094972 0.20310987 0.10000000)
		(0.78770950 0.21130587 0.10000000)
		(0.80446927 0.21877501 0.10000000)
		(0.82122905 0.22549157 0.10000000)
		(0.83798883 0.23143246 0.10000000)
		(0.85474860 0.23657724 0.10000000)
		(0.87150838 0.24090822 0.10000000)
		(0.88826816 0.24441049 0.10000000)
		(0.90502793 0.24707201 0.10000000)
		(0.92178771 0.24888362 0.10000000)
		(0.93854749 0.24983909 0.10000000)
		(0.95530726 0.24993514 0.10000000)
		(0.97206704 0.24917143 0.10000000)
		(0.98882682 0.24755060 0.10000000)
		(1.00558659 0.24507820 0.10000000)
		(1.02234637 0.24176276 0.10000000)
		(1.03910615 0.23761568 0.10000000)
		(1.05586592 0.23265122 0.10000000)
		(1.07262570 0.22688645 0.10000000)
		(1.08938547 0.22034122 0.10000000)
		(1.10614525 0.21303803 0.10000000)
		(1.12290503 0.20500201 0.10000000)
		(1.13966480 0.19626080 0.10000000)
		(1.15642458 0.18684446 0.10000000)
		(1.17318436 0.17678540 0.10000000)
		(1.18994413 0.16611821 0.10000000)
		(1.20670391 0.15487959 0.10000000)
		(1.22346369 0.14310819 0.10000000)
		(1.24022346 0.13084451 0.10000000)
		(1.25698324 0.11813074 0.10000000)
		(1.27374302 0.10501061 0.10000000)
		(1.29050279 0.09152925 0.10000000)
		(1.30726257 0.07773304 0.10000000)
		(1.32402235 0.06366944 0.10000000)
		(1.34078212 0.04938681 0.10000000)
		(1.35754190 0.03493430 0.10000000)
		(1.37430168 0.02036162 0.10000000)
		(1.39106145 0.00571889 0.10000000)
		(1.40782123 -0.00894350 0.10000000)
		(1.42458101 -0.02357514 0.10000000)
		(1.44134078 -0.03812567 0.10000000)
		(1.45810056 -0.05254506 0.10000000)
		(1.47486034 -0.06678369 0.10000000)
		(1.49162011 -0.08079260 0.10000000)
		(1.50837989 -0.09452358 0.10000000)
		(1.52513966 -0.10792942 0.10000000)
		(1.54189944 -0.12096398 0.10000000)
		(1.55865922 -0.13358244 0.10000000)
		(1.57541899 -0.14574138 0.10000000)
		(1.59217877 -0.15739899 0.10000000)
		(1.60893855 -0.16851516 0.10000000)
		(1.62569832 -0.17905165 0.10000000)
		(1.64245810 -0.18897221 0.10000000)
		(1.65921788 -0.19824273 0.10000000)
		(1.67597765 -0.20683131 0.10000000)
		(1.69273743 -0.21470840 0.10000000)
		(1.70949721 -0.22184692 0.10000000)
		(1.72625698 -0.22822230 0.10000000)
		(1.74301676 -0.23381262 0.10000000)
		(1.75977654 -0.23859864 0.10000000)
		(1.77653631 -0.24256390 0.10000000)
		(1.79329609 -0.24569476 0.10000000)
		(1.81005587 -0.24798045 0.10000000)
		(1.82681564 -0.24941311 0.10000000)
		(1.84357542 -0.24998781 0.10000000)
		(1.86033520 -0.24970257 0.10000000)
		(1.87709497 -0.24855838 0.10000000)
		(1.89385475 -0.24655916 0.10000000)
		(1.91061453 -0.24371180 0.10000000)
		(1.92737430 -0.24002610 0.10000000)
		(1.94413408 -0.23551472 0.10000000)
		(1.96089385 -0.23019319 0.10000000)
		(1.97765363 -0.22407982 0.10000000)
		(1.99441341 -0.21719563 0.10000000)
		(2.01117318 -0.20956430 0.10000000)
		(2.02793296 -0.20121209 0.10000000)
		(2.04469274 -0.19216773 0.10000000)
		(2.06145251 -0.18246233 0.10000000)
		(2.07821229 -0.17212927 0.10000000)
		(2.09497207 -0.16120410 0.10000000)
		(2.11173184 -0.14972441 0.10000000)
		(2.12849162 -0.13772967 0.10000000)
		(2.14525140 -0.12526115 0.10000000)
		(2.16201117 -0.11236175 0.10000000)
		(2.17877095 -0.09907583 0.10000000)
		(2.19553073 -0.08544910 0.10000000)
		(2.21229050 -0.07152843 0.10000000)
		(2.22905028 -0.05736171 0.10000000)
		(2.24581006 -0.04299767 0.10000000)
		(2.26256983 -0.02848572 0.10000000)
		(2.27932961 -0.01387578 0.10000000)
		(2.29608939 0.00078188 0.10000000)
		(2.31284916 0.01543686 0.10000000)
		(2.32960894 0.03003874 0.10000000)
		(2.34636872 0.04453729 0.10000000)
		(2.36312849 0.05888263 0.10000000)
		(2.37988827 0.07302542 0.10000000)
		(2.39664804 0.08691701 0.10000000)
		(2.41340782 0.10050961 0.10000000)
		(2.43016760 0.11375647 0.10000000)
		(2.44692737 0.12661202 0.10000000)
		(2.46368715 0.13903203 0.10000000)
		(2.48044693 0.15097378 0.10000000)
		(2.49720670 0.16239619 0.10000000)
		(2.51396648 0.17325998 0.10000000)
		(2.53072626 0.18352776 0.10000000)
		(2.54748603 0.19316422 0.10000000)
		(2.56424581 0.20213622 0.10000000)
		(2.58100559 0.21041288 0.10000000)
		(2.59776536 0.21796574 0.10000000)
		(2.61452514 0.22476882 0.10000000)
		(2.63128492 0.23079871 0.10000000)
		(2.64804469 0.23603467 0.10000000)
		(2.66480447 0.24045869 0.10000000)
		(2.68156425 0.24405556 0.10000000)
		(2.69832402 0.24681289 0.10000000)
		(2.71508380 0.24872121 0.10000000)
		(2.73184358 0.24977394 0.10000000)
		(2.74860335 0.24996748 0.10000000)
		(2.76536313 0.24930115 0.10000000)
		(2.78212291 0.24777724 0.10000000)
		(2.79888268 0.24540100 0.10000000)
		(2.81564246 0.24218060 0.10000000)
		(2.83240223 0.23812711 0.10000000)
		(2.84916201 0.23325450 0.10000000)
		(2.86592179 0.22757950 0.10000000)
		(2.88268156 0.22112165 0.10000000)
		(2.89944134 0.21390316 0.10000000)
		(2.91620112 0.20594886 0.10000000)
		(2.93296089 0.19728612 0.10000000)
		(2.95166480 0.18947614 0.10000000)
		(2.97036872 0.18248827 0.10000000)
		(2.98907263 0.17632250 0.10000000)
		(3.00777654 0.17097883 0.10000000)
		(3.02648045 0.16645727 0.10000000)
		(3.04518436 0.16275781 0.10000000)
		(3.06388827 0.15988045 0.10000000)
		(3.08259218 0.15782519 0.10000000)
		(3.10129609 0.15659204 0.10000000)
		(3.12000000 0.15618099 0.10000000)
		(3.14000000 0.15618099 0.10000000)
		(3.16000000 0.15618099 0.10000000)
		(3.18000000 0.15618099 0.10000000)
		(3.20000000 0.15618099 0.10000000)
		(3.22000000 0.15618099 0.10000000)
		(3.24000000 0.15618099 0.10000000)
		(3.26000000 0.15618099 0.10000000)
		(3.28000000 0.15618099 0.10000000)
		(3.30000000 0.15618099 0.10000000)
		(3.32000000 0.15618099 0.10000000)
		(3.34000000 0.15618099 0.10000000)
		(3.36000000 0.15618099 0.10000000)
		(3.38000000 0.15618099 0.10000000)
		(3.40000000 0.15618099 0.10000000)
		(3.42000000 0.15618099 0.10000000)
		(3.44000000 0.15618099 0.10000000)
		(3.46000000 0.15618099 0.10000000)
		(3.48000000 0.15618099 0.10000000)
		(3.50000000 0.15618099 0.10000000)
		(3.52000000 0.15618099 0.10000000)
		(3.54000000 0.15618099 0.10000000)
		(3.56000000 0.15618099 0.10000000)
		(3.58000000 0.15618099 0.10000000)
		(3.60000000 0.15618099 0.10000000)
		(3.62000000 0.15618099 0.10000000)
		(3.64000000 0.15618099 0.10000000)
		(3.66000000 0.15618099 0.10000000)
		(3.68000000 0.15618099 0.10000000)
		(3.70000000 0.15618099 0.10000000)
		(3.72000000 0.15618099 0.10000000)
		(3.74000000 0.15618099 0.10000000)
		(3.76000000 0.15618099 0.10000000)
		(3.78000000 0.15618099 0.10000000)
		(3.80000000 0.15618099 0.10000000)
		(3.82000000 0.15618099 0.10000000)
		(3.84000000 0.15618099 0.10000000)
		(3.86000000 0.15618099 0.10000000)
		(3.88000000 0.15618099 0.10000000)
		(3.90000000 0.15618099 0.10000000)
		(3.92000000 0.15618099 0.10000000)
		(3.94000000 0.15618099 0.10000000)
		(3.96000000 0.15618099 0.10000000)
		(3.98000000 0.15618099 0.10000000)
		(4.00000000 0.15618099 0.10000000)
	)
	polyLine 3 2
	(
		(-1.00000000 0.25400351 0.00000000)
		(-0.98000000 0.25299945 0.00000000)
		(-0.96000000 0.25199538 0.00000000)
		(-0.94000000 0.25099131 0.00000000)
		(-0.92000000 0.24998724 0.00000000)
		(-0.90000000 0.24898318 0.00000000)
		(-0.88000000 0.24797911 0.00000000)
		(-0.86000000 0.24697504 0.00000000)
		(-0.84000000 0.24597097 0.00000000)
		(-0.82000000 0.24496691 0.00000000)
		(-0.80000000 0.24396284 0.00000000)
		(-0.78000000 0.24295877 0.00000000)
		(-0.76000000 0.24195471 0.00000000)
		(-0.74000000 0.24095064 0.00000000)
		(-0.72000000 0.23994657 0.00000000)
		(-0.70000000 0.23894250 0.00000000)
		(-0.68000000 0.23793844 0.00000000)
		(-0.66000000 0.23693437 0.00000000)
		(-0.64000000 0.23593030 0.00000000)
		(-0.62000000 0.23492623 0.00000000)
		(-0.60000000 0.23392217 0.00000000)
		(-0.58000000 0.23291810 0.00000000)
		(-0.56000000 0.23191403 0.00000000)
		(-0.54000000 0.23090997 0.00000000)
		(-0.52000000 0.22990590 0.00000000)
		(-0.50000000 0.22890183 0.00000000)
		(-0.48000000 0.22789776 0.00000000)
		(-0.46000000 0.22689370 0.00000000)
		(-0.44000000 0.22588963 0.00000000)
		(-0.42000000 0.22488556 0.00000000)
		(-0.40000000 0.22388149 0.00000000)
		(-0.38000000 0.22287743 0.00000000)
		(-0.36000000 0.22187336 0.00000000)
		(-0.34000000 0.22086929 0.00000000)
		(-0.32000000 0.21986523 0.00000000)
		(-0.30000000 0.21886116 0.00000000)
		(-0.28000000 0.21785709 0.00000000)
		(-0.26000000 0.21685302 0.00000000)
		(-0.24000000 0.21584896 0.00000000)
		(-0.22000000 0.21484489 0.00000000)
		(-0.20000000 0.21384082 0.00000000)
		(-0.18000000 0.21283675 0.00000000)
		(-0.16000000 0.21183269 0.00000000)
		(-0.14000000 0.21082862 0.00000000)
		(-0.12000000 0.20982455 0.00000000)
		(-0.10000000 0.20882049 0.00000000)
		(-0.08162011 0.20813789 0.00000000)
		(-0.06324022 0.20745432 0.00000000)
		(-0.04486034 0.20676977 0.00000000)
		(-0.02648045 0.20608423 0.00000000)
		(-0.00810056 0.20539772 0.00000000)
		(0.01027933 0.20471022 0.00000000)
		(0.02865922 0.20402175 0.00000000)
		(0.04703911 0.20333230 0.00000000)
		(0.06541899 0.20264186 0.00000000)
		(0.08379888 0.20195044 0.00000000)
		(0.10055866 0.20446535 0.00000000)
		(0.11731844 0.20799686 0.00000000)
		(0.13407821 0.21253285 0.00000000)
		(0.15083799 0.21805770 0.00000000)
		(0.16759777 0.22455240 0.00000000)
		(0.18435754 0.23199462 0.00000000)
		(0.20111732 0.24035876 0.00000000)
		(0.21787709 0.24961605 0.00000000)
		(0.23463687 0.25973463 0.00000000)
		(0.25139665 0.27067971 0.00000000)
		(0.26815642 0.28241363 0.00000000)
		(0.28491620 0.29489602 0.00000000)
		(0.30167598 0.30808396 0.00000000)
		(0.31843575 0.32193208 0.00000000)
		(0.33519553 0.33639273 0.00000000)
		(0.35195531 0.35141618 0.00000000)
		(0.36871508 0.36695074 0.00000000)
		(0.38547486 0.38294299 0.00000000)
		(0.40223464 0.39933790 0.00000000)
		(0.41899441 0.41607908 0.00000000)
		(0.43575419 0.43310894 0.00000000)
		(0.45251397 0.45036890 0.00000000)
		(0.46927374 0.46779958 0.00000000)
		(0.48603352 0.48534104 0.00000000)
		(0.50279330 0.50293291 0.00000000)
		(0.51955307 0.52051470 0.00000000)
		(0.53631285 0.53802593 0.00000000)
		(0.55307263 0.55540634 0.00000000)
		(0.56983240 0.57259616 0.00000000)
		(0.58659218 0.58953626 0.00000000)
		(0.60335196 0.60616836 0.00000000)
		(0.62011173 0.62243525 0.00000000)
		(0.63687151 0.63828097 0.00000000)
		(0.65363128 0.65365102 0.00000000)
		(0.67039106 0.66849252 0.00000000)
		(0.68715084 0.68275442 0.00000000)
		(0.70391061 0.69638766 0.00000000)
		(0.72067039 0.70934534 0.00000000)
		(0.73743017 0.72158289 0.00000000)
		(0.75418994 0.73305822 0.00000000)
		(0.77094972 0.74373184 0.00000000)
		(0.78770950 0.75356705 0.00000000)
		(0.80446927 0.76253001 0.00000000)
		(0.82122905 0.77058988 0.00000000)
		(0.83798883 0.77771895 0.00000000)
		(0.85474860 0.78389269 0.00000000)
		(0.87150838 0.78908986 0.00000000)
		(0.88826816 0.79329259 0.00000000)
		(0.90502793 0.79648641 0.00000000)
		(0.92178771 0.79866035 0.00000000)
		(0.93854749 0.79980691 0.00000000)
		(0.95530726 0.79992217 0.00000000)
		(0.97206704 0.79900572 0.00000000)
		(0.98882682 0.79706071 0.00000000)
		(1.00558659 0.79409385 0.00000000)
		(1.02234637 0.79011532 0.00000000)
		(1.03910615 0.78513882 0.00000000)
		(1.05586592 0.77918146 0.00000000)
		(1.07262570 0.77226375 0.00000000)
		(1.08938547 0.76440946 0.00000000)
		(1.10614525 0.75564564 0.00000000)
		(1.12290503 0.74600241 0.00000000)
		(1.13966480 0.73551296 0.00000000)
		(1.15642458 0.72421335 0.00000000)
		(1.17318436 0.71214248 0.00000000)
		(1.18994413 0.69934185 0.00000000)
		(1.20670391 0.68585550 0.00000000)
		(1.22346369 0.67172983 0.00000000)
		(1.24022346 0.65701342 0.00000000)
		(1.25698324 0.64175689 0.00000000)
		(1.27374302 0.62601273 0.00000000)
		(1.29050279 0.60983510 0.00000000)
		(1.30726257 0.59327965 0.00000000)
		(1.32402235 0.57640332 0.00000000)
		(1.34078212 0.55926417 0.00000000)
		(1.35754190 0.54192116 0.00000000)
		(1.37430168 0.52443394 0.00000000)
		(1.39106145 0.50686267 0.00000000)
		(1.40782123 0.48926780 0.00000000)
		(1.42458101 0.47170984 0.00000000)
		(1.44134078 0.45424920 0.00000000)
		(1.45810056 0.43694593 0.00000000)
		(1.47486034 0.41985957 0.00000000)
		(1.49162011 0.40304888 0.00000000)
		(1.50837989 0.38657170 0.00000000)
		(1.52513966 0.37048470 0.00000000)
		(1.54189944 0.35484323 0.00000000)
		(1.55865922 0.33970108 0.00000000)
		(1.57541899 0.32511034 0.00000000)
		(1.59217877 0.31112121 0.00000000)
		(1.60893855 0.29778181 0.00000000)
		(1.62569832 0.28513803 0.00000000)
		(1.64245810 0.27323335 0.00000000)
		(1.65921788 0.26210872 0.00000000)
		(1.67597765 0.25180243 0.00000000)
		(1.69273743 0.24234991 0.00000000)
		(1.70949721 0.23378369 0.00000000)
		(1.72625698 0.22613324 0.00000000)
		(1.74301676 0.21942486 0.00000000)
		(1.75977654 0.21368163 0.00000000)
		(1.77653631 0.20892332 0.00000000)
		(1.79329609 0.20516629 0.00000000)
		(1.81005587 0.20242346 0.00000000)
		(1.82681564 0.20070427 0.00000000)
		(1.84357542 0.20001463 0.00000000)
		(1.86033520 0.20035691 0.00000000)
		(1.87709497 0.20172995 0.00000000)
		(1.89385475 0.20412901 0.00000000)
		(1.91061453 0.20754584 0.00000000)
		(1.92737430 0.21196869 0.00000000)
		(1.94413408 0.21738234 0.00000000)
		(1.96089385 0.22376817 0.00000000)
		(1.97765363 0.23110422 0.00000000)
		(1.99441341 0.23936525 0.00000000)
		(2.01117318 0.24852284 0.00000000)
		(2.02793296 0.25854549 0.00000000)
		(2.04469274 0.26939872 0.00000000)
		(2.06145251 0.28104520 0.00000000)
		(2.07821229 0.29344487 0.00000000)
		(2.09497207 0.30655508 0.00000000)
		(2.11173184 0.32033071 0.00000000)
		(2.12849162 0.33472440 0.00000000)
		(2.14525140 0.34968661 0.00000000)
		(2.16201117 0.36516590 0.00000000)
		(2.17877095 0.38110900 0.00000000)
		(2.19553073 0.39746108 0.00000000)
		(2.21229050 0.41416588 0.00000000)
		(2.22905028 0.43116595 0.00000000)
		(2.24581006 0.44840279 0.00000000)
		(2.26256983 0.46581713 0.00000000)
		(2.27932961 0.48334906 0.00000000)
		(2.29608939 0.50093826 0.00000000)
		(2.31284916 0.51852424 0.00000000)
		(2.32960894 0.53604649 0.00000000)
		(2.34636872 0.55344475 0.00000000)
		(2.36312849 0.57065916 0.00000000)
		(2.37988827 0.58763051 0.00000000)
		(2.39664804 0.60430041 0.00000000)
		(2.41340782 0.62061154 0.00000000)
		(2.43016760 0.63650777 0.00000000)
		(2.44692737 0.65193442 0.00000000)
		(2.46368715 0.66683843 0.00000000)
		(2.48044693 0.68116853 0.00000000)
		(2.49720670 0.69487543 0.00000000)
		(2.51396648 0.70791197 0.00000000)
		(2.53072626 0.72023331 0.00000000)