/*--------------------------------*- C++ -*----------------------------------*\\
/*--------------------------------*- C++ -*----------------------------------*\\
| =========                 |                                                 |
| \\\\      /  F ield         | OpenFOAM: The Open Source CFD Toolbox           |
|  \\\\    /   O peration     | Version:  v2012                                 |
|   \\\\  /    A nd           | Website:  www.openfoam.com                      |
|    \\\\/     M anipulation  |                                                 |
\\*---------------------------------------------------------------------------*/
FoamFile
{
    version     2.0;
    format      ascii;
    class       dictionary;
    object      blockMeshDict;
}
// * * * * * * * * * * * * * * * * * * * * * * * * * * * * * * * * * * * * * //

scale   0.01;

xmin -1;
xmax 5;
ymin 0;
ymax 0.5;
zmin 0;
zmax 0.1;

vertices
(
    (-1.00000000 -0.19855540 0.00000000)
    (4.00000000 0.11564371 0.00000000)
    (4.00000000 0.61564371 0.00000000)
    (-1.00000000 0.30144460 0.00000000)
    (-1.00000000 -0.19855540 0.10000000)
    (4.00000000 0.11564371 0.10000000)
    (4.00000000 0.61564371 0.10000000)
    (-1.00000000 0.30144460 0.10000000)
);

blocks
(
    hex (0 1 2 3 4 5 6 7) (200 20 1) simpleGrading (1 1 1)
);

edges
(
	polyLine 0 1
	(
		(-1.00000000 -0.19855540 0.00000000)
		(-0.98000000 -0.19855540 0.00000000)
		(-0.96000000 -0.19855540 0.00000000)
		(-0.94000000 -0.19855540 0.00000000)
		(-0.92000000 -0.19855540 0.00000000)
		(-0.90000000 -0.19855540 0.00000000)
		(-0.88000000 -0.19855540 0.00000000)
		(-0.86000000 -0.19855540 0.00000000)
		(-0.84000000 -0.19855540 0.00000000)
		(-0.82000000 -0.19855540 0.00000000)
		(-0.80000000 -0.19855540 0.00000000)
		(-0.78000000 -0.19855540 0.00000000)
		(-0.76000000 -0.19855540 0.00000000)
		(-0.74000000 -0.19855540 0.00000000)
		(-0.72000000 -0.19855540 0.00000000)
		(-0.70000000 -0.19855540 0.00000000)
		(-0.68000000 -0.19855540 0.00000000)
		(-0.66000000 -0.19855540 0.00000000)
		(-0.64000000 -0.19855540 0.00000000)
		(-0.62000000 -0.19855540 0.00000000)
		(-0.60000000 -0.19855540 0.00000000)
		(-0.58000000 -0.19855540 0.00000000)
		(-0.56000000 -0.19855540 0.00000000)
		(-0.54000000 -0.19855540 0.00000000)
		(-0.52000000 -0.19855540 0.00000000)
		(-0.50000000 -0.19855540 0.00000000)
		(-0.48000000 -0.19855540 0.00000000)
		(-0.46000000 -0.19855540 0.00000000)
		(-0.44000000 -0.19855540 0.00000000)
		(-0.42000000 -0.19855540 0.00000000)
		(-0.40000000 -0.19855540 0.00000000)
		(-0.38000000 -0.19855540 0.00000000)
		(-0.36000000 -0.19855540 0.00000000)
		(-0.34000000 -0.19855540 0.00000000)
		(-0.32000000 -0.19855540 0.00000000)
		(-0.30000000 -0.19855540 0.00000000)
		(-0.28000000 -0.19855540 0.00000000)
		(-0.26000000 -0.19855540 0.00000000)
		(-0.24000000 -0.19855540 0.00000000)
		(-0.22000000 -0.19855540 0.00000000)
		(-0.20000000 -0.19855540 0.00000000)
		(-0.18000000 -0.19855540 0.00000000)
		(-0.16000000 -0.19855540 0.00000000)
		(-0.14000000 -0.19855540 0.00000000)
		(-0.12000000 -0.19855540 0.00000000)
		(-0.10000000 -0.19855540 0.00000000)
		(-0.08162011 -0.19806737 0.00000000)
		(-0.06324022 -0.19660326 0.00000000)
		(-0.04486034 -0.19416309 0.00000000)
		(-0.02648045 -0.19074685 0.00000000)
		(-0.00810056 -0.18635455 0.00000000)
		(0.01027933 -0.18098617 0.00000000)
		(0.02865922 -0.17464173 0.00000000)
		(0.04703911 -0.16732121 0.00000000)
		(0.06541899 -0.15902463 0.00000000)
		(0.08379888 -0.14975198 0.00000000)
		(0.10055866 -0.13850156 0.00000000)
		(0.11731844 -0.12683087 0.00000000)
		(0.13407821 -0.11477532 0.00000000)
		(0.15083799 -0.10237148 0.00000000)
		(0.16759777 -0.08965701 0.00000000)
		(0.18435754 -0.07667047 0.00000000)
		(0.20111732 -0.06345129 0.00000000)
		(0.21787709 -0.05003956 0.00000000)
		(0.23463687 -0.03647599 0.00000000)
		(0.25139665 -0.02280174 0.00000000)
		(0.26815642 -0.00905829 0.00000000)
		(0.28491620 0.00471264 0.00000000)
		(0.30167598 0.01846927 0.00000000)
		(0.31843575 0.03216985 0.00000000)
		(0.33519553 0.04577282 0.00000000)
		(0.35195531 0.05923690 0.00000000)
		(0.36871508 0.07252122 0.00000000)
		(0.38547486 0.08558548 0.00000000)
		(0.40223464 0.09839004 0.00000000)
		(0.41899441 0.11089603 0.00000000)
		(0.43575419 0.12306552 0.00000000)
		(0.45251397 0.13486158 0.00000000)
		(0.46927374 0.14624840 0.00000000)
		(0.48603352 0.15719144 0.00000000)
		(0.50279330 0.16765749 0.00000000)
		(0.51955307 0.17761479 0.00000000)
		(0.53631285 0.18703314 0.00000000)
		(0.55307263 0.19588393 0.00000000)
		(0.56983240 0.20414033 0.00000000)
		(0.58659218 0.21177728 0.00000000)
		(0.60335196 0.21877160 0.00000000)
		(0.62011173 0.22510207 0.00000000)
		(0.63687151 0.23074948 0.00000000)
		(0.65363128 0.23569670 0.00000000)
		(0.67039106 0.23992870 0.00000000)
		(0.68715084 0.24343265 0.00000000)
		(0.70391061 0.24619792 0.00000000)
		(0.72067039 0.24821612 0.00000000)
		(0.73743017 0.24948112 0.00000000)
		(0.75418994 0.24998908 0.00000000)
		(0.77094972 0.24973846 0.00000000)
		(0.78770950 0.24873003 0.00000000)
		(0.80446927 0.24696683 0.00000000)
		(0.82122905 0.24445423 0.00000000)
		(0.83798883 0.24119985 0.00000000)
		(0.85474860 0.23721356 0.00000000)
		(0.87150838 0.23250745 0.00000000)
		(0.88826816 0.22709582 0.00000000)
		(0.90502793 0.22099507 0.00000000)
		(0.92178771 0.21422373 0.00000000)
		(0.93854749 0.20680234 0.00000000)
		(0.95530726 0.19875342 0.00000000)
		(0.97206704 0.19010139 0.00000000)
		(0.98882682 0.18087250 0.00000000)
		(1.00558659 0.17109478 0.00000000)
		(1.02234637 0.16079787 0.00000000)
		(1.03910615 0.15001303 0.00000000)
		(1.05586592 0.13877298 0.00000000)
		(1.07262570 0.12711184 0.00000000)
		(1.08938547 0.11506498 0.00000000)
		(1.10614525 0.10266896 0.00000000)
		(1.12290503 0.08996140 0.00000000)
		(1.13966480 0.07698085 0.00000000)
		(1.15642458 0.06376671 0.00000000)
		(1.17318436 0.05035908 0.00000000)
		(1.18994413 0.03679863 0.00000000)
		(1.20670391 0.02312652 0.00000000)
		(1.22346369 0.00938423 0.00000000)
		(1.24022346 -0.00438653 0.00000000)
		(1.25698324 -0.01814398 0.00000000)
		(1.27374302 -0.03184638 0.00000000)
		(1.29050279 -0.04545213 0.00000000)
		(1.30726257 -0.05891997 0.00000000)
		(1.32402235 -0.07220902 0.00000000)
		(1.34078212 -0.08527895 0.00000000)
		(1.35754190 -0.09809011 0.00000000)
		(1.37430168 -0.11060362 0.00000000)
		(1.39106145 -0.12278151 0.00000000)
		(1.40782123 -0.13458682 0.00000000)
		(1.42458101 -0.14598374 0.00000000)
		(1.44134078 -0.15693768 0.00000000)
		(1.45810056 -0.16741540 0.00000000)
		(1.47486034 -0.17738511 0.00000000)
		(1.49162011 -0.18681655 0.00000000)
		(1.50837989 -0.19568111 0.00000000)
		(1.52513966 -0.20395188 0.00000000)
		(1.54189944 -0.21160377 0.00000000)
		(1.55865922 -0.21861356 0.00000000)
		(1.57541899 -0.22495999 0.00000000)
		(1.59217877 -0.23062378 0.00000000)
		(1.60893855 -0.23558775 0.00000000)
		(1.62569832 -0.23983685 0.00000000)
		(1.64245810 -0.24335818 0.00000000)
		(1.65921788 -0.24614105 0.00000000)
		(1.67597765 -0.24817702 0.00000000)
		(1.69273743 -0.24945990 0.00000000)
		(1.70949721 -0.24998582 0.00000000)
		(1.72625698 -0.24975316 0.00000000)
		(1.74301676 -0.24876265 0.00000000)
		(1.75977654 -0.24701728 0.00000000)
		(1.77653631 -0.24452234 0.00000000)
		(1.79329609 -0.24128542 0.00000000)
		(1.81005587 -0.23731633 0.00000000)
		(1.82681564 -0.23262712 0.00000000)
		(1.84357542 -0.22723201 0.00000000)
		(1.86033520 -0.22114738 0.00000000)
		(1.87709497 -0.21439168 0.00000000)
		(1.89385475 -0.20698543 0.00000000)
		(1.91061453 -0.19895109 0.00000000)
		(1.92737430 -0.19031305 0.00000000)
		(1.94413408 -0.18109751 0.00000000)
		(1.96089385 -0.17133244 0.00000000)
		(1.97765363 -0.16104748 0.00000000)
		(1.99441341 -0.15027382 0.00000000)
		(2.01117318 -0.13904416 0.00000000)
		(2.02793296 -0.12739258 0.00000000)
		(2.04469274 -0.11535444 0.00000000)
		(2.06145251 -0.10296626 0.00000000)
		(2.07821229 -0.09026563 0.00000000)
		(2.09497207 -0.07729110 0.00000000)
		(2.11173184 -0.06408203 0.00000000)
		(2.12849162 -0.05067851 0.00000000)
		(2.14525140 -0.03712121 0.00000000)
		(2.16201117 -0.02345127 0.00000000)
		(2.17877095 -0.00971016 0.00000000)
		(2.19553073 0.00406041 0.00000000)
		(2.21229050 0.01781866 0.00000000)
		(2.22905028 0.03152284 0.00000000)
		(2.24581006 0.04513137 0.00000000)
		(2.26256983 0.05860295 0.00000000)
		(2.27932961 0.07189670 0.00000000)
		(2.29608939 0.08497228 0.00000000)
		(2.31284916 0.09779002 0.00000000)
		(2.32960894 0.11031102 0.00000000)
		(2.34636872 0.12249729 0.00000000)
		(2.36312849 0.13431185 0.00000000)
		(2.37988827 0.14571884 0.00000000)
		(2.39664804 0.15668366 0.00000000)
		(2.41340782 0.16717303 0.00000000)
		(2.43016760 0.17715512 0.00000000)
		(2.44692737 0.18659965 0.00000000)
		(2.46368715 0.19547795 0.00000000)
		(2.48044693 0.20376308 0.00000000)
		(2.49720670 0.21142990 0.00000000)
		(2.51396648 0.21845515 0.00000000)
		(2.53072626 0.22481752 0.00000000)
		(2.54748603 0.23049768 0.00000000)
		(2.56424581 0.23547841 0.00000000)
		(2.58100559 0.23974460 0.00000000)
		(2.59776536 0.24328329 0.00000000)
		(2.61452514 0.24608375 0.00000000)
		(2.63128492 0.24813749 0.00000000)
		(2.64804469 0.24943826 0.00000000)
		(2.66480447 0.24998213 0.00000000)
		(2.68156425 0.24976744 0.00000000)
		(2.69832402 0.24879485 0.00000000)
		(2.71508380 0.24706730 0.00000000)
		(2.73184358 0.24459004 0.00000000)
		(2.74860335 0.24137058 0.00000000)
		(2.76536313 0.23741870 0.00000000)
		(2.78212291 0.23274638 0.00000000)
		(2.79888268 0.22736781 0.00000000)
		(2.81564246 0.22129930 0.00000000)
		(2.83240223 0.21455927 0.00000000)
		(2.84916201 0.20716817 0.00000000)
		(2.86592179 0.19914843 0.00000000)
		(2.88268156 0.19052439 0.00000000)
		(2.89944134 0.18132221 0.00000000)
		(2.91620112 0.17156982 0.00000000)
		(2.93296089 0.16129681 0.00000000)
		(2.95166480 0.15262272 0.00000000)
		(2.97036872 0.14486169 0.00000000)
		(2.98907263 0.13801373 0.00000000)
		(3.00777654 0.13207882 0.00000000)
		(3.02648045 0.12705698 0.00000000)
		(3.04518436 0.12294820 0.00000000)
		(3.06388827 0.11975249 0.00000000)
		(3.08259218 0.11746983 0.00000000)
		(3.10129609 0.11610024 0.00000000)
		(3.12000000 0.11564371 0.00000000)
		(3.14000000 0.11564371 0.00000000)
		(3.16000000 0.11564371 0.00000000)
		(3.18000000 0.11564371 0.00000000)
		(3.20000000 0.11564371 0.00000000)
		(3.22000000 0.11564371 0.00000000)
		(3.24000000 0.11564371 0.00000000)
		(3.26000000 0.11564371 0.00000000)
		(3.28000000 0.11564371 0.00000000)
		(3.30000000 0.11564371 0.00000000)
		(3.32000000 0.11564371 0.00000000)
		(3.34000000 0.11564371 0.00000000)
		(3.36000000 0.11564371 0.00000000)
		(3.38000000 0.11564371 0.00000000)
		(3.40000000 0.11564371 0.00000000)
		(3.42000000 0.11564371 0.00000000)
		(3.44000000 0.11564371 0.00000000)
		(3.46000000 0.11564371 0.00000000)
		(3.48000000 0.11564371 0.00000000)
		(3.50000000 0.11564371 0.00000000)
		(3.52000000 0.11564371 0.00000000)
		(3.54000000 0.11564371 0.00000000)
		(3.56000000 0.11564371 0.00000000)
		(3.58000000 0.11564371 0.00000000)
		(3.60000000 0.11564371 0.00000000)
		(3.62000000 0.11564371 0.00000000)
		(3.64000000 0.11564371 0.00000000)
		(3.66000000 0.11564371 0.00000000)
		(3.68000000 0.11564371 0.00000000)
		(3.70000000 0.11564371 0.00000000)
		(3.72000000 0.11564371 0.00000000)
		(3.74000000 0.11564371 0.00000000)
		(3.76000000 0.11564371 0.00000000)
		(3.78000000 0.11564371 0.00000000)
		(3.80000000 0.11564371 0.00000000)
		(3.82000000 0.11564371 0.00000000)
		(3.84000000 0.11564371 0.00000000)
		(3.86000000 0.11564371 0.00000000)
		(3.88000000 0.11564371 0.00000000)
		(3.90000000 0.11564371 0.00000000)
		(3.92000000 0.11564371 0.00000000)
		(3.94000000 0.11564371 0.00000000)
		(3.96000000 0.11564371 0.00000000)
		(3.98000000 0.11564371 0.00000000)
		(4.00000000 0.11564371 0.00000000)
	)
	polyLine 4 5
	(
		(-1.00000000 -0.19855540 0.10000000)
		(-0.98000000 -0.19855540 0.10000000)
		(-0.96000000 -0.19855540 0.10000000)
		(-0.94000000 -0.19855540 0.10000000)
		(-0.92000000 -0.19855540 0.10000000)
		(-0.90000000 -0.19855540 0.10000000)
		(-0.88000000 -0.19855540 0.10000000)
		(-0.86000000 -0.19855540 0.10000000)
		(-0.84000000 -0.19855540 0.10000000)
		(-0.82000000 -0.19855540 0.10000000)
		(-0.80000000 -0.19855540 0.10000000)
		(-0.78000000 -0.19855540 0.10000000)
		(-0.76000000 -0.19855540 0.10000000)
		(-0.74000000 -0.19855540 0.10000000)
		(-0.72000000 -0.19855540 0.10000000)
		(-0.70000000 -0.19855540 0.10000000)
		(-0.68000000 -0.19855540 0.10000000)
		(-0.66000000 -0.19855540 0.10000000)
		(-0.64000000 -0.19855540 0.10000000)
		(-0.62000000 -0.19855540 0.10000000)
		(-0.60000000 -0.19855540 0.10000000)
		(-0.58000000 -0.19855540 0.10000000)
		(-0.56000000 -0.19855540 0.10000000)
		(-0.54000000 -0.19855540 0.10000000)
		(-0.52000000 -0.19855540 0.10000000)
		(-0.50000000 -0.19855540 0.10000000)
		(-0.48000000 -0.19855540 0.10000000)
		(-0.46000000 -0.19855540 0.10000000)
		(-0.44000000 -0.19855540 0.10000000)
		(-0.42000000 -0.19855540 0.10000000)
		(-0.40000000 -0.19855540 0.10000000)
		(-0.38000000 -0.19855540 0.10000000)
		(-0.36000000 -0.19855540 0.10000000)
		(-0.34000000 -0.19855540 0.10000000)
		(-0.32000000 -0.19855540 0.10000000)
		(-0.30000000 -0.19855540 0.10000000)
		(-0.28000000 -0.19855540 0.10000000)
		(-0.26000000 -0.19855540 0.10000000)
		(-0.24000000 -0.19855540 0.10000000)
		(-0.22000000 -0.19855540 0.10000000)
		(-0.20000000 -0.19855540 0.10000000)
		(-0.18000000 -0.19855540 0.10000000)
		(-0.16000000 -0.19855540 0.10000000)
		(-0.14000000 -0.19855540 0.10000000)
		(-0.12000000 -0.19855540 0.10000000)
		(-0.10000000 -0.19855540 0.10000000)
		(-0.08162011 -0.19806737 0.10000000)
		(-0.06324022 -0.19660326 0.10000000)
		(-0.04486034 -0.19416309 0.10000000)
		(-0.02648045 -0.19074685 0.10000000)
		(-0.00810056 -0.18635455 0.10000000)
		(0.01027933 -0.18098617 0.10000000)
		(0.02865922 -0.17464173 0.10000000)
		(0.04703911 -0.16732121 0.10000000)
		(0.06541899 -0.15902463 0.10000000)
		(0.08379888 -0.14975198 0.10000000)
		(0.10055866 -0.13850156 0.10000000)
		(0.11731844 -0.12683087 0.10000000)
		(0.13407821 -0.11477532 0.10000000)
		(0.15083799 -0.10237148 0.10000000)
		(0.16759777 -0.08965701 0.10000000)
		(0.18435754 -0.07667047 0.10000000)
		(0.20111732 -0.06345129 0.10000000)
		(0.21787709 -0.05003956 0.10000000)
		(0.23463687 -0.03647599 0.10000000)
		(0.25139665 -0.02280174 0.10000000)
		(0.26815642 -0.00905829 0.10000000)
		(0.28491620 0.00471264 0.10000000)
		(0.30167598 0.01846927 0.10000000)
		(0.31843575 0.03216985 0.10000000)
		(0.33519553 0.04577282 0.10000000)
		(0.35195531 0.05923690 0.10000000)
		(0.36871508 0.07252122 0.10000000)
		(0.38547486 0.08558548 0.10000000)
		(0.40223464 0.09839004 0.10000000)
		(0.41899441 0.11089603 0.10000000)
		(0.43575419 0.12306552 0.10000000)
		(0.45251397 0.13486158 0.10000000)
		(0.46927374 0.14624840 0.10000000)
		(0.48603352 0.15719144 0.10000000)
		(0.50279330 0.16765749 0.10000000)
		(0.51955307 0.17761479 0.10000000)
		(0.53631285 0.18703314 0.10000000)
		(0.55307263 0.19588393 0.10000000)
		(0.56983240 0.20414033 0.10000000)
		(0.58659218 0.21177728 0.10000000)
		(0.60335196 0.21877160 0.10000000)
		(0.62011173 0.22510207 0.10000000)
		(0.63687151 0.23074948 0.10000000)
		(0.65363128 0.23569670 0.10000000)
		(0.67039106 0.23992870 0.10000000)
		(0.68715084 0.24343265 0.10000000)
		(0.70391061 0.24619792 0.10000000)
		(0.72067039 0.24821612 0.10000000)
		(0.73743017 0.24948112 0.10000000)
		(0.75418994 0.24998908 0.10000000)
		(0.77094972 0.24973846 0.10000000)
		(0.78770950 0.24873003 0.10000000)
		(0.80446927 0.24696683 0.10000000)
		(0.82122905 0.24445423 0.10000000)
		(0.83798883 0.24119985 0.10000000)
		(0.85474860 0.23721356 0.10000000)
		(0.87150838 0.23250745 0.10000000)
		(0.88826816 0.22709582 0.10000000)
		(0.90502793 0.22099507 0.10000000)
		(0.92178771 0.21422373 0.10000000)
		(0.93854749 0.20680234 0.10000000)
		(0.95530726 0.19875342 0.10000000)
		(0.97206704 0.19010139 0.10000000)
		(0.98882682 0.18087250 0.10000000)
		(1.00558659 0.17109478 0.10000000)
		(1.02234637 0.16079787 0.10000000)
		(1.03910615 0.15001303 0.10000000)
		(1.05586592 0.13877298 0.10000000)
		(1.07262570 0.12711184 0.10000000)
		(1.08938547 0.11506498 0.10000000)
		(1.10614525 0.10266896 0.10000000)
		(1.12290503 0.08996140 0.10000000)
		(1.13966480 0.07698085 0.10000000)
		(1.15642458 0.06376671 0.10000000)
		(1.17318436 0.05035908 0.10000000)
		(1.18994413 0.03679863 0.10000000)
		(1.20670391 0.02312652 0.10000000)
		(1.22346369 0.00938423 0.10000000)
		(1.24022346 -0.00438653 0.10000000)
		(1.25698324 -0.01814398 0.10000000)
		(1.27374302 -0.03184638 0.10000000)
		(1.29050279 -0.04545213 0.10000000)
		(1.30726257 -0.05891997 0.10000000)
		(1.32402235 -0.07220902 0.10000000)
		(1.34078212 -0.08527895 0.10000000)
		(1.35754190 -0.09809011 0.10000000)
		(1.37430168 -0.11060362 0.10000000)
		(1.39106145 -0.12278151 0.10000000)
		(1.40782123 -0.13458682 0.10000000)
		(1.42458101 -0.14598374 0.10000000)
		(1.44134078 -0.15693768 0.10000000)
		(1.45810056 -0.16741540 0.10000000)
		(1.47486034 -0.17738511 0.10000000)
		(1.49162011 -0.18681655 0.10000000)
		(1.50837989 -0.19568111 0.10000000)
		(1.52513966 -0.20395188 0.10000000)
		(1.54189944 -0.21160377 0.10000000)
		(1.55865922 -0.21861356 0.10000000)
		(1.57541899 -0.22495999 0.10000000)
		(1.59217877 -0.23062378 0.10000000)
		(1.60893855 -0.23558775 0.10000000)
		(1.62569832 -0.23983685 0.10000000)
		(1.64245810 -0.24335818 0.10000000)
		(1.65921788 -0.24614105 0.10000000)
		(1.67597765 -0.24817702 0.10000000)
		(1.69273743 -0.24945990 0.10000000)
		(1.70949721 -0.24998582 0.10000000)
		(1.72625698 -0.24975316 0.10000000)
		(1.74301676 -0.24876265 0.10000000)
		(1.75977654 -0.24701728 0.10000000)
		(1.77653631 -0.24452234 0.10000000)
		(1.79329609 -0.24128542 0.10000000)
		(1.81005587 -0.23731633 0.10000000)
		(1.82681564 -0.23262712 0.10000000)
		(1.84357542 -0.22723201 0.10000000)
		(1.86033520 -0.22114738 0.10000000)
		(1.87709497 -0.21439168 0.10000000)
		(1.89385475 -0.20698543 0.10000000)
		(1.91061453 -0.19895109 0.10000000)
		(1.92737430 -0.19031305 0.10000000)
		(1.94413408 -0.18109751 0.10000000)
		(1.96089385 -0.17133244 0.10000000)
		(1.97765363 -0.16104748 0.10000000)
		(1.99441341 -0.15027382 0.10000000)
		(2.01117318 -0.13904416 0.10000000)
		(2.02793296 -0.12739258 0.10000000)
		(2.04469274 -0.11535444 0.10000000)
		(2.06145251 -0.10296626 0.10000000)
		(2.07821229 -0.09026563 0.10000000)
		(2.09497207 -0.07729110 0.10000000)
		(2.11173184 -0.06408203 0.10000000)
		(2.12849162 -0.05067851 0.10000000)
		(2.14525140 -0.03712121 0.10000000)
		(2.16201117 -0.02345127 0.10000000)
		(2.17877095 -0.00971016 0.10000000)
		(2.19553073 0.00406041 0.10000000)
		(2.21229050 0.01781866 0.10000000)
		(2.22905028 0.03152284 0.10000000)
		(2.24581006 0.04513137 0.10000000)
		(2.26256983 0.05860295 0.10000000)
		(2.27932961 0.07189670 0.10000000)
		(2.29608939 0.08497228 0.10000000)
		(2.31284916 0.09779002 0.10000000)
		(2.32960894 0.11031102 0.10000000)
		(2.34636872 0.12249729 0.10000000)
		(2.36312849 0.13431185 0.10000000)
		(2.37988827 0.14571884 0.10000000)
		(2.39664804 0.15668366 0.10000000)
		(2.41340782 0.16717303 0.10000000)
		(2.43016760 0.17715512 0.10000000)
		(2.44692737 0.18659965 0.10000000)
		(2.46368715 0.19547795 0.10000000)
		(2.48044693 0.20376308 0.10000000)
		(2.49720670 0.21142990 0.10000000)
		(2.51396648 0.21845515 0.10000000)
		(2.53072626 0.22481752 0.10000000)
		(2.54748603 0.23049768 0.10000000)
		(2.56424581 0.23547841 0.10000000)
		(2.58100559 0.23974460 0.10000000)
		(2.59776536 0.24328329 0.10000000)
		(2.61452514 0.24608375 0.10000000)
		(2.63128492 0.24813749 0.10000000)
		(2.64804469 0.24943826 0.10000000)
		(2.66480447 0.24998213 0.10000000)
		(2.68156425 0.24976744 0.10000000)
		(2.69832402 0.24879485 0.10000000)
		(2.71508380 0.24706730 0.10000000)
		(2.73184358 0.24459004 0.10000000)
		(2.74860335 0.24137058 0.10000000)
		(2.76536313 0.23741870 0.10000000)
		(2.78212291 0.23274638 0.10000000)
		(2.79888268 0.22736781 0.10000000)
		(2.81564246 0.22129930 0.10000000)
		(2.83240223 0.21455927 0.10000000)
		(2.84916201 0.20716817 0.10000000)
		(2.86592179 0.19914843 0.10000000)
		(2.88268156 0.19052439 0.10000000)
		(2.89944134 0.18132221 0.10000000)
		(2.91620112 0.17156982 0.10000000)
		(2.93296089 0.16129681 0.10000000)
		(2.95166480 0.15262272 0.10000000)
		(2.97036872 0.14486169 0.10000000)
		(2.98907263 0.13801373 0.10000000)
		(3.00777654 0.13207882 0.10000000)
		(3.02648045 0.12705698 0.10000000)
		(3.04518436 0.12294820 0.10000000)
		(3.06388827 0.11975249 0.10000000)
		(3.08259218 0.11746983 0.10000000)
		(3.10129609 0.11610024 0.10000000)
		(3.12000000 0.11564371 0.10000000)
		(3.14000000 0.11564371 0.10000000)
		(3.16000000 0.11564371 0.10000000)
		(3.18000000 0.11564371 0.10000000)
		(3.20000000 0.11564371 0.10000000)
		(3.22000000 0.11564371 0.10000000)
		(3.24000000 0.11564371 0.10000000)
		(3.26000000 0.11564371 0.10000000)
		(3.28000000 0.11564371 0.10000000)
		(3.30000000 0.11564371 0.10000000)
		(3.32000000 0.11564371 0.10000000)
		(3.34000000 0.11564371 0.10000000)
		(3.36000000 0.11564371 0.10000000)
		(3.38000000 0.11564371 0.10000000)
		(3.40000000 0.11564371 0.10000000)
		(3.42000000 0.11564371 0.10000000)
		(3.44000000 0.11564371 0.10000000)
		(3.46000000 0.11564371 0.10000000)
		(3.48000000 0.11564371 0.10000000)
		(3.50000000 0.11564371 0.10000000)
		(3.52000000 0.11564371 0.10000000)
		(3.54000000 0.11564371 0.10000000)
		(3.56000000 0.11564371 0.10000000)
		(3.58000000 0.11564371 0.10000000)
		(3.60000000 0.11564371 0.10000000)
		(3.62000000 0.11564371 0.10000000)
		(3.64000000 0.11564371 0.10000000)
		(3.66000000 0.11564371 0.10000000)
		(3.68000000 0.11564371 0.10000000)
		(3.70000000 0.11564371 0.10000000)
		(3.72000000 0.11564371 0.10000000)
		(3.74000000 0.11564371 0.10000000)
		(3.76000000 0.11564371 0.10000000)
		(3.78000000 0.11564371 0.10000000)
		(3.80000000 0.11564371 0.10000000)
		(3.82000000 0.11564371 0.10000000)
		(3.84000000 0.11564371 0.10000000)
		(3.86000000 0.11564371 0.10000000)
		(3.88000000 0.11564371 0.10000000)
		(3.90000000 0.11564371 0.10000000)
		(3.92000000 0.11564371 0.10000000)
		(3.94000000 0.11564371 0.10000000)
		(3.96000000 0.11564371 0.10000000)
		(3.98000000 0.11564371 0.10000000)
		(4.00000000 0.11564371 0.10000000)
	)
	polyLine 3 2
	(
		(-1.00000000 0.30144460 0.00000000)
		(-0.98000000 0.30313918 0.00000000)
		(-0.96000000 0.30483376 0.00000000)
		(-0.94000000 0.30652834 0.00000000)
		(-0.92000000 0.30822292 0.00000000)
		(-0.90000000 0.30991750 0.00000000)
		(-0.88000000 0.31161208 0.00000000)
		(-0.86000000 0.31330666 0.00000000)
		(-0.84000000 0.31500124 0.00000000)
		(-0.82000000 0.31669582 0.00000000)
		(-0.80000000 0.31839040 0.00000000)
		(-0.78000000 0.32008498 0.00000000)
		(-0.76000000 0.32177956 0.00000000)
		(-0.74000000 0.32347414 0.00000000)
		(-0.72000000 0.32516872 0.00000000)
		(-0.70000000 0.32686330 0.00000000)
		(-0.68000000 0.32855788 0.00000000)
		(-0.66000000 0.33025246 0.00000000)
		(-0.64000000 0.33194704 0.00000000)
		(-0.62000000 0.33364162 0.00000000)
		(-0.60000000 0.33533620 0.00000000)
		(-0.58000000 0.33703078 0.00000000)
		(-0.56000000 0.33872536 0.00000000)
		(-0.54000000 0.34041994 0.00000000)
		(-0.52000000 0.34211452 0.00000000)
		(-0.50000000 0.34380910 0.00000000)
		(-0.48000000 0.34550368 0.00000000)
		(-0.46000000 0.34719826 0.00000000)
		(-0.44000000 0.34889284 0.00000000)
		(-0.42000000 0.35058742 0.00000000)
		(-0.40000000 0.35228200 0.00000000)
		(-0.38000000 0.35397658 0.00000000)
		(-0.36000000 0.35567116 0.00000000)
		(-0.34000000 0.35736574 0.00000000)
		(-0.32000000 0.35906032 0.00000000)
		(-0.30000000 0.36075490 0.00000000)
		(-0.28000000 0.36244948 0.00000000)
		(-0.26000000 0.36414406 0.00000000)
		(-0.24000000 0.36583864 0.00000000)
		(-0.22000000 0.36753322 0.00000000)
		(-0.20000000 0.36922780 0.00000000)
		(-0.18000000 0.37092238 0.00000000)
		(-0.16000000 0.37261696 0.00000000)
		(-0.14000000 0.37431154 0.00000000)
		(-0.12000000 0.37600612 0.00000000)
		(-0.10000000 0.37770070 0.00000000)
		(-0.08162011 0.37869486 0.00000000)
		(-0.06324022 0.38024971 0.00000000)
		(-0.04486034 0.38236524 0.00000000)
		(-0.02648045 0.38504146 0.00000000)
		(-0.00810056 0.38827837 0.00000000)
		(0.01027933 0.39207596 0.00000000)
		(0.02865922 0.39643424 0.00000000)
		(0.04703911 0.40135321 0.00000000)
		(0.06541899 0.40683286 0.00000000)
		(0.08379888 0.41287320 0.00000000)
		(0.10055866 0.41941878 0.00000000)
		(0.11731844 0.42620887 0.00000000)
		(0.13407821 0.43322288 0.00000000)
		(0.15083799 0.44043952 0.00000000)
		(0.16759777 0.44783690 0.00000000)
		(0.18435754 0.45539256 0.00000000)
		(0.20111732 0.46308358 0.00000000)
		(0.21787709 0.47088662 0.00000000)
		(0.23463687 0.47877800 0.00000000)
		(0.25139665 0.48673378 0.00000000)
		(0.26815642 0.49472982 0.00000000)
		(0.28491620 0.50274185 0.00000000)
		(0.30167598 0.51074556 0.00000000)
		(0.31843575 0.51871666 0.00000000)
		(0.33519553 0.52663096 0.00000000)
		(0.35195531 0.53446446 0.00000000)
		(0.36871508 0.54219338 0.00000000)
		(0.38547486 0.54979426 0.00000000)
		(0.40223464 0.55724404 0.00000000)
		(0.41899441 0.56452012 0.00000000)
		(0.43575419 0.57160042 0.00000000)
		(0.45251397 0.57846345 0.00000000)
		(0.46927374 0.58508839 0.00000000)
		(0.48603352 0.59145513 0.00000000)
		(0.50279330 0.59754436 0.00000000)
		(0.51955307 0.60333759 0.00000000)
		(0.53631285 0.60881725 0.00000000)
		(0.55307263 0.61396671 0.00000000)
		(0.56983240 0.61877034 0.00000000)
		(0.58659218 0.62321357 0.00000000)
		(0.60335196 0.62728292 0.00000000)
		(0.62011173 0.63096603 0.00000000)
		(0.63687151 0.63425174 0.00000000)
		(0.65363128 0.63713006 0.00000000)
		(0.67039106 0.63959227 0.00000000)
		(0.68715084 0.64163090 0.00000000)
		(0.70391061 0.64323975 0.00000000)
		(0.72067039 0.64441396 0.00000000)
		(0.73743017 0.64514994 0.00000000)
		(0.75418994 0.64544548 0.00000000)
		(0.77094972 0.64529967 0.00000000)
		(0.78770950 0.64471295 0.00000000)
		(0.80446927 0.64368711 0.00000000)
		(0.82122905 0.64222526 0.00000000)
		(0.83798883 0.64033184 0.00000000)
		(0.85474860 0.63801258 0.00000000)
		(0.87150838 0.63527454 0.00000000)
		(0.88826816 0.63212601 0.00000000)
		(0.90502793 0.62857655 0.00000000)
		(0.92178771 0.62463694 0.00000000)
		(0.93854749 0.62031912 0.00000000)
		(0.95530726 0.61563619 0.00000000)
		(0.97206704 0.61060238 0.00000000)
		(0.98882682 0.60523295 0.00000000)
		(1.00558659 0.59954419 0.00000000)
		(1.02234637 0.59355338 0.00000000)
		(1.03910615 0.58727868 0.00000000)
		(1.05586592 0.58073914 0.00000000)
		(1.07262570 0.57395460 0.00000000)
		(1.08938547 0.56694565 0.00000000)
		(1.10614525 0.55973355 0.00000000)
		(1.12290503 0.55234020 0.00000000)
		(1.13966480 0.54478802 0.00000000)
		(1.15642458 0.53709994 0.00000000)
		(1.17318436 0.52929928 0.00000000)
		(1.18994413 0.52140971 0.00000000)
		(1.20670391 0.51345518 0.00000000)
		(1.22346369 0.50545982 0.00000000)
		(1.24022346 0.49744789 0.00000000)
		(1.25698324 0.48944370 0.00000000)
		(1.27374302 0.48147155 0.00000000)
		(1.29050279 0.47355562 0.00000000)
		(1.30726257 0.46571993 0.00000000)
		(1.32402235 0.45798826 0.00000000)
		(1.34078212 0.45038408 0.00000000)
		(1.35754190 0.44293046 0.00000000)
		(1.37430168 0.43565000 0.00000000)
		(1.39106145 0.42856482 0.00000000)
		(1.40782123 0.42169640 0.00000000)
		(1.42458101 0.41506559 0.00000000)
		(1.44134078 0.40869251 0.00000000)
		(1.45810056 0.40259649 0.00000000)
		(1.47486034 0.39679604 0.00000000)
		(1.49162011 0.39130876 0.00000000)
		(1.50837989 0.38615130 0.00000000)
		(1.52513966 0.38133930 0.00000000)
		(1.54189944 0.37688738 0.00000000)
		(1.55865922 0.37280903 0.00000000)
		(1.57541899 0.36911663 0.00000000)
		(1.59217877 0.36582140 0.00000000)
		(1.60893855 0.36293332 0.00000000)
		(1.62569832 0.36046116 0.00000000)
		(1.64245810 0.35841243 0.00000000)
		(1.65921788 0.35679334 0.00000000)
		(1.67597765 0.35560880 0.00000000)
		(1.69273743 0.35486240 0.00000000)
		(1.70949721 0.35455642 0.00000000)
		(1.72625698 0.35469178 0.00000000)
		(1.74301676 0.35526807 0.00000000)
		(1.75977654 0.35628354 0.00000000)
		(1.77653631 0.35773511 0.00000000)
		(1.79329609 0.35961838 0.00000000)
		(1.81005587 0.36192762 0.00000000)
		(1.82681564 0.36465584 0.00000000)
		(1.84357542 0.36779475 0.00000000)
		(1.86033520 0.37133484 0.00000000)
		(1.87709497 0.37526535 0.00000000)
		(1.89385475 0.37957436 0.00000000)
		(1.91061453 0.38424880 0.00000000)
		(1.92737430 0.38927447 0.00000000)
		(1.94413408 0.39463614 0.00000000)
		(1.96089385 0.40031753 0.00000000)
		(1.97765363 0.40630140 0.00000000)
		(1.99441341 0.41256959 0.00000000)
		(2.01117318 0.41910309 0.00000000)
		(2.02793296 0.42588206 0.00000000)
		(2.04469274 0.43288594 0.00000000)
		(2.06145251 0.44009348 0.00000000)
		(2.07821229 0.44748279 0.00000000)
		(2.09497207 0.45503147 0.00000000)
		(2.11173184 0.46271660 0.00000000)
		(2.12849162 0.47051487 0.00000000)
		(2.14525140 0.47840261 0.00000000)
		(2.16201117 0.48635588 0.00000000)
		(2.17877095 0.49435056 0.00000000)
		(2.19553073 0.50236238 0.00000000)
		(2.21229050 0.51036703 0.00000000)
		(2.22905028 0.51834022 0.00000000)
		(2.24581006 0.52625776 0.00000000)
		(2.26256983 0.53409562 0.00000000)
		(2.27932961 0.54183002 0.00000000)
		(2.29608939 0.54943749 0.00000000)
		(2.31284916 0.55689495 0.00000000)
		(2.32960894 0.56417976 0.00000000)
		(2.34636872 0.57126982 0.00000000)
		(2.36312849 0.57814362 0.00000000)
		(2.37988827 0.58478029 0.00000000)
		(2.39664804 0.59115970 0.00000000)
		(2.41340782 0.59726249 0.00000000)
		(2.43016760 0.60307015 0.00000000)
		(2.44692737 0.60856504 0.00000000)
		(2.46368715 0.61373050 0.00000000)
		(2.48044693 0.61855085 0.00000000)
		(2.49720670 0.62301147 0.00000000)
		(2.51396648 0.62709881 0.00000000)
		(2.53072626 0.63080048 0.00000000)