/*--------------------------------*- C++ -*----------------------------------*\\
/*--------------------------------*- C++ -*----------------------------------*\\
| =========                 |                                                 |
| \\\\      /  F ield         | OpenFOAM: The Open Source CFD Toolbox           |
|  \\\\    /   O peration     | Version:  v2012                                 |
|   \\\\  /    A nd           | Website:  www.openfoam.com                      |
|    \\\\/     M anipulation  |                                                 |
\\*---------------------------------------------------------------------------*/
FoamFile
{
    version     2.0;
    format      ascii;
    class       dictionary;
    object      blockMeshDict;
}
// * * * * * * * * * * * * * * * * * * * * * * * * * * * * * * * * * * * * * //

scale   0.01;

xmin -1;
xmax 5;
ymin 0;
ymax 0.5;
zmin 0;
zmax 0.1;

vertices
(
    (-1.00000000 0.05893292 0.00000000)
    (4.00000000 0.15572616 0.00000000)
    (4.00000000 0.65572616 0.00000000)
    (-1.00000000 0.55893292 0.00000000)
    (-1.00000000 0.05893292 0.10000000)
    (4.00000000 0.15572616 0.10000000)
    (4.00000000 0.65572616 0.10000000)
    (-1.00000000 0.55893292 0.10000000)
);

blocks
(
    hex (0 1 2 3 4 5 6 7) (200 20 1) simpleGrading (1 1 1)
);

edges
(
	polyLine 0 1
	(
		(-1.00000000 0.05893292 0.00000000)
		(-0.98000000 0.05893292 0.00000000)
		(-0.96000000 0.05893292 0.00000000)
		(-0.94000000 0.05893292 0.00000000)
		(-0.92000000 0.05893292 0.00000000)
		(-0.90000000 0.05893292 0.00000000)
		(-0.88000000 0.05893292 0.00000000)
		(-0.86000000 0.05893292 0.00000000)
		(-0.84000000 0.05893292 0.00000000)
		(-0.82000000 0.05893292 0.00000000)
		(-0.80000000 0.05893292 0.00000000)
		(-0.78000000 0.05893292 0.00000000)
		(-0.76000000 0.05893292 0.00000000)
		(-0.74000000 0.05893292 0.00000000)
		(-0.72000000 0.05893292 0.00000000)
		(-0.70000000 0.05893292 0.00000000)
		(-0.68000000 0.05893292 0.00000000)
		(-0.66000000 0.05893292 0.00000000)
		(-0.64000000 0.05893292 0.00000000)
		(-0.62000000 0.05893292 0.00000000)
		(-0.60000000 0.05893292 0.00000000)
		(-0.58000000 0.05893292 0.00000000)
		(-0.56000000 0.05893292 0.00000000)
		(-0.54000000 0.05893292 0.00000000)
		(-0.52000000 0.05893292 0.00000000)
		(-0.50000000 0.05893292 0.00000000)
		(-0.48000000 0.05893292 0.00000000)
		(-0.46000000 0.05893292 0.00000000)
		(-0.44000000 0.05893292 0.00000000)
		(-0.42000000 0.05893292 0.00000000)
		(-0.40000000 0.05893292 0.00000000)
		(-0.38000000 0.05893292 0.00000000)
		(-0.36000000 0.05893292 0.00000000)
		(-0.34000000 0.05893292 0.00000000)
		(-0.32000000 0.05893292 0.00000000)
		(-0.30000000 0.05893292 0.00000000)
		(-0.28000000 0.05893292 0.00000000)
		(-0.26000000 0.05893292 0.00000000)
		(-0.24000000 0.05893292 0.00000000)
		(-0.22000000 0.05893292 0.00000000)
		(-0.20000000 0.05893292 0.00000000)
		(-0.18000000 0.05893292 0.00000000)
		(-0.16000000 0.05893292 0.00000000)
		(-0.14000000 0.05893292 0.00000000)
		(-0.12000000 0.05893292 0.00000000)
		(-0.10000000 0.05893292 0.00000000)
		(-0.08162011 0.05778283 0.00000000)
		(-0.06324022 0.05433256 0.00000000)
		(-0.04486034 0.04858210 0.00000000)
		(-0.02648045 0.04053147 0.00000000)
		(-0.00810056 0.03018066 0.00000000)
		(0.01027933 0.01752966 0.00000000)
		(0.02865922 0.00257849 0.00000000)
		(0.04703911 -0.01467287 0.00000000)
		(0.06541899 -0.03422441 0.00000000)
		(0.08379888 -0.05607613 0.00000000)
		(0.10055866 -0.07842078 0.00000000)
		(0.11731844 -0.10008998 0.00000000)
		(0.13407821 -0.12089710 0.00000000)
		(0.15083799 -0.14066291 0.00000000)
		(0.16759777 -0.15921719 0.00000000)
		(0.18435754 -0.17640011 0.00000000)
		(0.20111732 -0.19206368 0.00000000)
		(0.21787709 -0.20607298 0.00000000)
		(0.23463687 -0.21830736 0.00000000)
		(0.25139665 -0.22866143 0.00000000)
		(0.26815642 -0.23704602 0.00000000)
		(0.28491620 -0.24338891 0.00000000)
		(0.30167598 -0.24763546 0.00000000)
		(0.31843575 -0.24974911 0.00000000)
		(0.33519553 -0.24971163 0.00000000)
		(0.35195531 -0.24752337 0.00000000)
		(0.36871508 -0.24320317 0.00000000)
		(0.38547486 -0.23678823 0.00000000)
		(0.40223464 -0.22833380 0.00000000)
		(0.41899441 -0.21791272 0.00000000)
		(0.43575419 -0.20561473 0.00000000)
		(0.45251397 -0.19154576 0.00000000)
		(0.46927374 -0.17582699 0.00000000)
		(0.48603352 -0.15859380 0.00000000)
		(0.50279330 -0.13999463 0.00000000)
		(0.51955307 -0.12018967 0.00000000)
		(0.53631285 -0.09934950 0.00000000)
		(0.55307263 -0.07765363 0.00000000)
		(0.56983240 -0.05528892 0.00000000)
		(0.58659218 -0.03244800 0.00000000)
		(0.60335196 -0.00932760 0.00000000)
		(0.62011173 0.01387314 0.00000000)
		(0.63687151 0.03695439 0.00000000)
		(0.65363128 0.05971735 0.00000000)
		(0.67039106 0.08196595 0.00000000)
		(0.68715084 0.10350858 0.00000000)
		(0.70391061 0.12415967 0.00000000)
		(0.72067039 0.14374136 0.00000000)
		(0.73743017 0.16208500 0.00000000)
		(0.75418994 0.17903258 0.00000000)
		(0.77094972 0.19443813 0.00000000)
		(0.78770950 0.20816897 0.00000000)
		(0.80446927 0.22010683 0.00000000)
		(0.82122905 0.23014889 0.00000000)
		(0.83798883 0.23820865 0.00000000)
		(0.85474860 0.24421669 0.00000000)
		(0.87150838 0.24812127 0.00000000)
		(0.88826816 0.24988876 0.00000000)
		(0.90502793 0.24950393 0.00000000)
		(0.92178771 0.24697009 0.00000000)
		(0.93854749 0.24230908 0.00000000)
		(0.95530726 0.23556104 0.00000000)
		(0.97206704 0.22678408 0.00000000)
		(0.98882682 0.21605381 0.00000000)
		(1.00558659 0.20346265 0.00000000)
		(1.02234637 0.18911904 0.00000000)
		(1.03910615 0.17314653 0.00000000)
		(1.05586592 0.15568269 0.00000000)
		(1.07262570 0.13687794 0.00000000)
		(1.08938547 0.11689425 0.00000000)
		(1.10614525 0.09590373 0.00000000)
		(1.12290503 0.07408719 0.00000000)
		(1.13966480 0.05163252 0.00000000)
		(1.15642458 0.02873314 0.00000000)
		(1.17318436 0.00558628 0.00000000)
		(1.18994413 -0.01760870 0.00000000)
		(1.20670391 -0.04065201 0.00000000)
		(1.22346369 -0.06334518 0.00000000)
		(1.24022346 -0.08549276 0.00000000)
		(1.25698324 -0.10690397 0.00000000)
		(1.27374302 -0.12739441 0.00000000)
		(1.29050279 -0.14678759 0.00000000)
		(1.30726257 -0.16491648 0.00000000)
		(1.32402235 -0.18162492 0.00000000)
		(1.34078212 -0.19676900 0.00000000)
		(1.35754190 -0.21021830 0.00000000)
		(1.37430168 -0.22185696 0.00000000)
		(1.39106145 -0.23158475 0.00000000)
		(1.40782123 -0.23931787 0.00000000)
		(1.42458101 -0.24498973 0.00000000)
		(1.44134078 -0.24855146 0.00000000)
		(1.45810056 -0.24997239 0.00000000)
		(1.47486034 -0.24924029 0.00000000)
		(1.49162011 -0.24636145 0.00000000)
		(1.50837989 -0.24136068 0.00000000)
		(1.52513966 -0.23428105 0.00000000)
		(1.54189944 -0.22518352 0.00000000)
		(1.55865922 -0.21414647 0.00000000)
		(1.57541899 -0.20126495 0.00000000)
		(1.59217877 -0.18664992 0.00000000)
		(1.60893855 -0.17042725 0.00000000)
		(1.62569832 -0.15273668 0.00000000)
		(1.64245810 -0.13373057 0.00000000)
		(1.65921788 -0.11357262 0.00000000)
		(1.67597765 -0.09243646 0.00000000)
		(1.69273743 -0.07050414 0.00000000)
		(1.70949721 -0.04796455 0.00000000)
		(1.72625698 -0.02501185 0.00000000)
		(1.74301676 -0.00184371 0.00000000)
		(1.75977654 0.02134031 0.00000000)
		(1.77653631 0.04434052 0.00000000)
		(1.79329609 0.06695882 0.00000000)
		(1.81005587 0.08900040 0.00000000)
		(1.82681564 0.11027540 0.00000000)
		(1.84357542 0.13060060 0.00000000)
		(1.86033520 0.14980092 0.00000000)
		(1.87709497 0.16771099 0.00000000)
		(1.89385475 0.18417654 0.00000000)
		(1.91061453 0.19905577 0.00000000)
		(1.92737430 0.21222050 0.00000000)
		(1.94413408 0.22355736 0.00000000)
		(1.96089385 0.23296870 0.00000000)
		(1.97765363 0.24037346 0.00000000)
		(1.99441341 0.24570785 0.00000000)
		(2.01117318 0.24892594 0.00000000)
		(2.02793296 0.25000000 0.00000000)
		(2.04469274 0.24892078 0.00000000)
		(2.06145251 0.24569759 0.00000000)
		(2.07821229 0.24035818 0.00000000)
		(2.09497207 0.23294854 0.00000000)
		(2.11173184 0.22353249 0.00000000)
		(2.12849162 0.21219113 0.00000000)
		(2.14525140 0.19902214 0.00000000)
		(2.16201117 0.18413896 0.00000000)
		(2.17877095 0.16766977 0.00000000)
		(2.19553073 0.14975643 0.00000000)
		(2.21229050 0.13055321 0.00000000)
		(2.22905028 0.11022553 0.00000000)
		(2.24581006 0.08894847 0.00000000)
		(2.26256983 0.06690528 0.00000000)
		(2.27932961 0.04428583 0.00000000)
		(2.29608939 0.02128494 0.00000000)
		(2.31284916 -0.00189927 0.00000000)
		(2.32960894 -0.02506713 0.00000000)
		(2.34636872 -0.04801909 0.00000000)
		(2.36312849 -0.07055745 0.00000000)
		(2.37988827 -0.09248809 0.00000000)
		(2.39664804 -0.11362212 0.00000000)
		(2.41340782 -0.13377751 0.00000000)
		(2.43016760 -0.15278066 0.00000000)
		(2.44692737 -0.17046790 0.00000000)
		(2.46368715 -0.18668688 0.00000000)
		(2.48044693 -0.20129791 0.00000000)
		(2.49720670 -0.21417514 0.00000000)
		(2.51396648 -0.22520765 0.00000000)
		(2.53072626 -0.23430043 0.00000000)
		(2.54748603 -0.24137516 0.00000000)
		(2.56424581 -0.24637089 0.00000000)
		(2.58100559 -0.24924461 0.00000000)
		(2.59776536 -0.24997156 0.00000000)
		(2.61452514 -0.24854548 0.00000000)
		(2.63128492 -0.24497865 0.00000000)
		(2.64804469 -0.23930180 0.00000000)
		(2.66480447 -0.23156381 0.00000000)
		(2.68156425 -0.22183134 0.00000000)
		(2.69832402 -0.21018822 0.00000000)
		(2.71508380 -0.19673472 0.00000000)
		(2.73184358 -0.18158673 0.00000000)
		(2.74860335 -0.16487471 0.00000000)
		(2.76536313 -0.14674261 0.00000000)
		(2.78212291 -0.12734660 0.00000000)
		(2.79888268 -0.10685374 0.00000000)
		(2.81564246 -0.08544054 0.00000000)
		(2.83240223 -0.06329143 0.00000000)
		(2.84916201 -0.04059718 0.00000000)
		(2.86592179 -0.01755327 0.00000000)
		(2.88268156 0.00564183 0.00000000)
		(2.89944134 0.02878834 0.00000000)
		(2.91620112 0.05168689 0.00000000)
		(2.93296089 0.07414026 0.00000000)
		(2.95166480 0.08964158 0.00000000)
		(2.97036872 0.10351118 0.00000000)
		(2.98907263 0.11574907 0.00000000)
		(3.00777654 0.12635524 0.00000000)
		(3.02648045 0.13532969 0.00000000)
		(3.04518436 0.14267242 0.00000000)
		(3.06388827 0.14838343 0.00000000)
		(3.08259218 0.15246273 0.00000000)
		(3.10129609 0.15491030 0.00000000)
		(3.12000000 0.15572616 0.00000000)
		(3.14000000 0.15572616 0.00000000)
		(3.16000000 0.15572616 0.00000000)
		(3.18000000 0.15572616 0.00000000)
		(3.20000000 0.15572616 0.00000000)
		(3.22000000 0.15572616 0.00000000)
		(3.24000000 0.15572616 0.00000000)
		(3.26000000 0.15572616 0.00000000)
		(3.28000000 0.15572616 0.00000000)
		(3.30000000 0.15572616 0.00000000)
		(3.32000000 0.15572616 0.00000000)
		(3.34000000 0.15572616 0.00000000)
		(3.36000000 0.15572616 0.00000000)
		(3.38000000 0.15572616 0.00000000)
		(3.40000000 0.15572616 0.00000000)
		(3.42000000 0.15572616 0.00000000)
		(3.44000000 0.15572616 0.00000000)
		(3.46000000 0.15572616 0.00000000)
		(3.48000000 0.15572616 0.00000000)
		(3.50000000 0.15572616 0.00000000)
		(3.52000000 0.15572616 0.00000000)
		(3.54000000 0.15572616 0.00000000)
		(3.56000000 0.15572616 0.00000000)
		(3.58000000 0.15572616 0.00000000)
		(3.60000000 0.15572616 0.00000000)
		(3.62000000 0.15572616 0.00000000)
		(3.64000000 0.15572616 0.00000000)
		(3.66000000 0.15572616 0.00000000)
		(3.68000000 0.15572616 0.00000000)
		(3.70000000 0.15572616 0.00000000)
		(3.72000000 0.15572616 0.00000000)
		(3.74000000 0.15572616 0.00000000)
		(3.76000000 0.15572616 0.00000000)
		(3.78000000 0.15572616 0.00000000)
		(3.80000000 0.15572616 0.00000000)
		(3.82000000 0.15572616 0.00000000)
		(3.84000000 0.15572616 0.00000000)
		(3.86000000 0.15572616 0.00000000)
		(3.88000000 0.15572616 0.00000000)
		(3.90000000 0.15572616 0.00000000)
		(3.92000000 0.15572616 0.00000000)
		(3.94000000 0.15572616 0.00000000)
		(3.96000000 0.15572616 0.00000000)
		(3.98000000 0.15572616 0.00000000)
		(4.00000000 0.15572616 0.00000000)
	)
	polyLine 4 5
	(
		(-1.00000000 0.05893292 0.10000000)
		(-0.98000000 0.05893292 0.10000000)
		(-0.96000000 0.05893292 0.10000000)
		(-0.94000000 0.05893292 0.10000000)
		(-0.92000000 0.05893292 0.10000000)
		(-0.90000000 0.05893292 0.10000000)
		(-0.88000000 0.05893292 0.10000000)
		(-0.86000000 0.05893292 0.10000000)
		(-0.84000000 0.05893292 0.10000000)
		(-0.82000000 0.05893292 0.10000000)
		(-0.80000000 0.05893292 0.10000000)
		(-0.78000000 0.05893292 0.10000000)
		(-0.76000000 0.05893292 0.10000000)
		(-0.74000000 0.05893292 0.10000000)
		(-0.72000000 0.05893292 0.10000000)
		(-0.70000000 0.05893292 0.10000000)
		(-0.68000000 0.05893292 0.10000000)
		(-0.66000000 0.05893292 0.10000000)
		(-0.64000000 0.05893292 0.10000000)
		(-0.62000000 0.05893292 0.10000000)
		(-0.60000000 0.05893292 0.10000000)
		(-0.58000000 0.05893292 0.10000000)
		(-0.56000000 0.05893292 0.10000000)
		(-0.54000000 0.05893292 0.10000000)
		(-0.52000000 0.05893292 0.10000000)
		(-0.50000000 0.05893292 0.10000000)
		(-0.48000000 0.05893292 0.10000000)
		(-0.46000000 0.05893292 0.10000000)
		(-0.44000000 0.05893292 0.10000000)
		(-0.42000000 0.05893292 0.10000000)
		(-0.40000000 0.05893292 0.10000000)
		(-0.38000000 0.05893292 0.10000000)
		(-0.36000000 0.05893292 0.10000000)
		(-0.34000000 0.05893292 0.10000000)
		(-0.32000000 0.05893292 0.10000000)
		(-0.30000000 0.05893292 0.10000000)
		(-0.28000000 0.05893292 0.10000000)
		(-0.26000000 0.05893292 0.10000000)
		(-0.24000000 0.05893292 0.10000000)
		(-0.22000000 0.05893292 0.10000000)
		(-0.20000000 0.05893292 0.10000000)
		(-0.18000000 0.05893292 0.10000000)
		(-0.16000000 0.05893292 0.10000000)
		(-0.14000000 0.05893292 0.10000000)
		(-0.12000000 0.05893292 0.10000000)
		(-0.10000000 0.05893292 0.10000000)
		(-0.08162011 0.05778283 0.10000000)
		(-0.06324022 0.05433256 0.10000000)
		(-0.04486034 0.04858210 0.10000000)
		(-0.02648045 0.04053147 0.10000000)
		(-0.00810056 0.03018066 0.10000000)
		(0.01027933 0.01752966 0.10000000)
		(0.02865922 0.00257849 0.10000000)
		(0.04703911 -0.01467287 0.10000000)
		(0.06541899 -0.03422441 0.10000000)
		(0.08379888 -0.05607613 0.10000000)
		(0.10055866 -0.07842078 0.10000000)
		(0.11731844 -0.10008998 0.10000000)
		(0.13407821 -0.12089710 0.10000000)
		(0.15083799 -0.14066291 0.10000000)
		(0.16759777 -0.15921719 0.10000000)
		(0.18435754 -0.17640011 0.10000000)
		(0.20111732 -0.19206368 0.10000000)
		(0.21787709 -0.20607298 0.10000000)
		(0.23463687 -0.21830736 0.10000000)
		(0.25139665 -0.22866143 0.10000000)
		(0.26815642 -0.23704602 0.10000000)
		(0.28491620 -0.24338891 0.10000000)
		(0.30167598 -0.24763546 0.10000000)
		(0.31843575 -0.24974911 0.10000000)
		(0.33519553 -0.24971163 0.10000000)
		(0.35195531 -0.24752337 0.10000000)
		(0.36871508 -0.24320317 0.10000000)
		(0.38547486 -0.23678823 0.10000000)
		(0.40223464 -0.22833380 0.10000000)
		(0.41899441 -0.21791272 0.10000000)
		(0.43575419 -0.20561473 0.10000000)
		(0.45251397 -0.19154576 0.10000000)
		(0.46927374 -0.17582699 0.10000000)
		(0.48603352 -0.15859380 0.10000000)
		(0.50279330 -0.13999463 0.10000000)
		(0.51955307 -0.12018967 0.10000000)
		(0.53631285 -0.09934950 0.10000000)
		(0.55307263 -0.07765363 0.10000000)
		(0.56983240 -0.05528892 0.10000000)
		(0.58659218 -0.03244800 0.10000000)
		(0.60335196 -0.00932760 0.10000000)
		(0.62011173 0.01387314 0.10000000)
		(0.63687151 0.03695439 0.10000000)
		(0.65363128 0.05971735 0.10000000)
		(0.67039106 0.08196595 0.10000000)
		(0.68715084 0.10350858 0.10000000)
		(0.70391061 0.12415967 0.10000000)
		(0.72067039 0.14374136 0.10000000)
		(0.73743017 0.16208500 0.10000000)
		(0.75418994 0.17903258 0.10000000)
		(0.77094972 0.19443813 0.10000000)
		(0.78770950 0.20816897 0.10000000)
		(0.80446927 0.22010683 0.10000000)
		(0.82122905 0.23014889 0.10000000)
		(0.83798883 0.23820865 0.10000000)
		(0.85474860 0.24421669 0.10000000)
		(0.87150838 0.24812127 0.10000000)
		(0.88826816 0.24988876 0.10000000)
		(0.90502793 0.24950393 0.10000000)
		(0.92178771 0.24697009 0.10000000)
		(0.93854749 0.24230908 0.10000000)
		(0.95530726 0.23556104 0.10000000)
		(0.97206704 0.22678408 0.10000000)
		(0.98882682 0.21605381 0.10000000)
		(1.00558659 0.20346265 0.10000000)
		(1.02234637 0.18911904 0.10000000)
		(1.03910615 0.17314653 0.10000000)
		(1.05586592 0.15568269 0.10000000)
		(1.07262570 0.13687794 0.10000000)
		(1.08938547 0.11689425 0.10000000)
		(1.10614525 0.09590373 0.10000000)
		(1.12290503 0.07408719 0.10000000)
		(1.13966480 0.05163252 0.10000000)
		(1.15642458 0.02873314 0.10000000)
		(1.17318436 0.00558628 0.10000000)
		(1.18994413 -0.01760870 0.10000000)
		(1.20670391 -0.04065201 0.10000000)
		(1.22346369 -0.06334518 0.10000000)
		(1.24022346 -0.08549276 0.10000000)
		(1.25698324 -0.10690397 0.10000000)
		(1.27374302 -0.12739441 0.10000000)
		(1.29050279 -0.14678759 0.10000000)
		(1.30726257 -0.16491648 0.10000000)
		(1.32402235 -0.18162492 0.10000000)
		(1.34078212 -0.19676900 0.10000000)
		(1.35754190 -0.21021830 0.10000000)
		(1.37430168 -0.22185696 0.10000000)
		(1.39106145 -0.23158475 0.10000000)
		(1.40782123 -0.23931787 0.10000000)
		(1.42458101 -0.24498973 0.10000000)
		(1.44134078 -0.24855146 0.10000000)
		(1.45810056 -0.24997239 0.10000000)
		(1.47486034 -0.24924029 0.10000000)
		(1.49162011 -0.24636145 0.10000000)
		(1.50837989 -0.24136068 0.10000000)
		(1.52513966 -0.23428105 0.10000000)
		(1.54189944 -0.22518352 0.10000000)
		(1.55865922 -0.21414647 0.10000000)
		(1.57541899 -0.20126495 0.10000000)
		(1.59217877 -0.18664992 0.10000000)
		(1.60893855 -0.17042725 0.10000000)
		(1.62569832 -0.15273668 0.10000000)
		(1.64245810 -0.13373057 0.10000000)
		(1.65921788 -0.11357262 0.10000000)
		(1.67597765 -0.09243646 0.10000000)
		(1.69273743 -0.07050414 0.10000000)
		(1.70949721 -0.04796455 0.10000000)
		(1.72625698 -0.02501185 0.10000000)
		(1.74301676 -0.00184371 0.10000000)
		(1.75977654 0.02134031 0.10000000)
		(1.77653631 0.04434052 0.10000000)
		(1.79329609 0.06695882 0.10000000)
		(1.81005587 0.08900040 0.10000000)
		(1.82681564 0.11027540 0.10000000)
		(1.84357542 0.13060060 0.10000000)
		(1.86033520 0.14980092 0.10000000)
		(1.87709497 0.16771099 0.10000000)
		(1.89385475 0.18417654 0.10000000)
		(1.91061453 0.19905577 0.10000000)
		(1.92737430 0.21222050 0.10000000)
		(1.94413408 0.22355736 0.10000000)
		(1.96089385 0.23296870 0.10000000)
		(1.97765363 0.24037346 0.10000000)
		(1.99441341 0.24570785 0.10000000)
		(2.01117318 0.24892594 0.10000000)
		(2.02793296 0.25000000 0.10000000)
		(2.04469274 0.24892078 0.10000000)
		(2.06145251 0.24569759 0.10000000)
		(2.07821229 0.24035818 0.10000000)
		(2.09497207 0.23294854 0.10000000)
		(2.11173184 0.22353249 0.10000000)
		(2.12849162 0.21219113 0.10000000)
		(2.14525140 0.19902214 0.10000000)
		(2.16201117 0.18413896 0.10000000)
		(2.17877095 0.16766977 0.10000000)
		(2.19553073 0.14975643 0.10000000)
		(2.21229050 0.13055321 0.10000000)
		(2.22905028 0.11022553 0.10000000)
		(2.24581006 0.08894847 0.10000000)
		(2.26256983 0.06690528 0.10000000)
		(2.27932961 0.04428583 0.10000000)
		(2.29608939 0.02128494 0.10000000)
		(2.31284916 -0.00189927 0.10000000)
		(2.32960894 -0.02506713 0.10000000)
		(2.34636872 -0.04801909 0.10000000)
		(2.36312849 -0.07055745 0.10000000)
		(2.37988827 -0.09248809 0.10000000)
		(2.39664804 -0.11362212 0.10000000)
		(2.41340782 -0.13377751 0.10000000)
		(2.43016760 -0.15278066 0.10000000)
		(2.44692737 -0.17046790 0.10000000)
		(2.46368715 -0.18668688 0.10000000)
		(2.48044693 -0.20129791 0.10000000)
		(2.49720670 -0.21417514 0.10000000)
		(2.51396648 -0.22520765 0.10000000)
		(2.53072626 -0.23430043 0.10000000)
		(2.54748603 -0.24137516 0.10000000)
		(2.56424581 -0.24637089 0.10000000)
		(2.58100559 -0.24924461 0.10000000)
		(2.59776536 -0.24997156 0.10000000)
		(2.61452514 -0.24854548 0.10000000)
		(2.63128492 -0.24497865 0.10000000)
		(2.64804469 -0.23930180 0.10000000)
		(2.66480447 -0.23156381 0.10000000)
		(2.68156425 -0.22183134 0.10000000)
		(2.69832402 -0.21018822 0.10000000)
		(2.71508380 -0.19673472 0.10000000)
		(2.73184358 -0.18158673 0.10000000)
		(2.74860335 -0.16487471 0.10000000)
		(2.76536313 -0.14674261 0.10000000)
		(2.78212291 -0.12734660 0.10000000)
		(2.79888268 -0.10685374 0.10000000)
		(2.81564246 -0.08544054 0.10000000)
		(2.83240223 -0.06329143 0.10000000)
		(2.84916201 -0.04059718 0.10000000)
		(2.86592179 -0.01755327 0.10000000)
		(2.88268156 0.00564183 0.10000000)
		(2.89944134 0.02878834 0.10000000)
		(2.91620112 0.05168689 0.10000000)
		(2.93296089 0.07414026 0.10000000)
		(2.95166480 0.08964158 0.10000000)
		(2.97036872 0.10351118 0.10000000)
		(2.98907263 0.11574907 0.10000000)
		(3.00777654 0.12635524 0.10000000)
		(3.02648045 0.13532969 0.10000000)
		(3.04518436 0.14267242 0.10000000)
		(3.06388827 0.14838343 0.10000000)
		(3.08259218 0.15246273 0.10000000)
		(3.10129609 0.15491030 0.10000000)
		(3.12000000 0.15572616 0.10000000)
		(3.14000000 0.15572616 0.10000000)
		(3.16000000 0.15572616 0.10000000)
		(3.18000000 0.15572616 0.10000000)
		(3.20000000 0.15572616 0.10000000)
		(3.22000000 0.15572616 0.10000000)
		(3.24000000 0.15572616 0.10000000)
		(3.26000000 0.15572616 0.10000000)
		(3.28000000 0.15572616 0.10000000)
		(3.30000000 0.15572616 0.10000000)
		(3.32000000 0.15572616 0.10000000)
		(3.34000000 0.15572616 0.10000000)
		(3.36000000 0.15572616 0.10000000)
		(3.38000000 0.15572616 0.10000000)
		(3.40000000 0.15572616 0.10000000)
		(3.42000000 0.15572616 0.10000000)
		(3.44000000 0.15572616 0.10000000)
		(3.46000000 0.15572616 0.10000000)
		(3.48000000 0.15572616 0.10000000)
		(3.50000000 0.15572616 0.10000000)
		(3.52000000 0.15572616 0.10000000)
		(3.54000000 0.15572616 0.10000000)
		(3.56000000 0.15572616 0.10000000)
		(3.58000000 0.15572616 0.10000000)
		(3.60000000 0.15572616 0.10000000)
		(3.62000000 0.15572616 0.10000000)
		(3.64000000 0.15572616 0.10000000)
		(3.66000000 0.15572616 0.10000000)
		(3.68000000 0.15572616 0.10000000)
		(3.70000000 0.15572616 0.10000000)
		(3.72000000 0.15572616 0.10000000)
		(3.74000000 0.15572616 0.10000000)
		(3.76000000 0.15572616 0.10000000)
		(3.78000000 0.15572616 0.10000000)
		(3.80000000 0.15572616 0.10000000)
		(3.82000000 0.15572616 0.10000000)
		(3.84000000 0.15572616 0.10000000)
		(3.86000000 0.15572616 0.10000000)
		(3.88000000 0.15572616 0.10000000)
		(3.90000000 0.15572616 0.10000000)
		(3.92000000 0.15572616 0.10000000)
		(3.94000000 0.15572616 0.10000000)
		(3.96000000 0.15572616 0.10000000)
		(3.98000000 0.15572616 0.10000000)
		(4.00000000 0.15572616 0.10000000)
	)
	polyLine 3 2
	(
		(-1.00000000 0.55893292 0.00000000)
		(-0.98000000 0.55949279 0.00000000)
		(-0.96000000 0.56005266 0.00000000)
		(-0.94000000 0.56061252 0.00000000)
		(-0.92000000 0.56117239 0.00000000)
		(-0.90000000 0.56173226 0.00000000)
		(-0.88000000 0.56229213 0.00000000)
		(-0.86000000 0.56285200 0.00000000)
		(-0.84000000 0.56341186 0.00000000)
		(-0.82000000 0.56397173 0.00000000)
		(-0.80000000 0.56453160 0.00000000)
		(-0.78000000 0.56509147 0.00000000)
		(-0.76000000 0.56565134 0.00000000)
		(-0.74000000 0.56621120 0.00000000)
		(-0.72000000 0.56677107 0.00000000)
		(-0.70000000 0.56733094 0.00000000)
		(-0.68000000 0.56789081 0.00000000)
		(-0.66000000 0.56845068 0.00000000)
		(-0.64000000 0.56901054 0.00000000)
		(-0.62000000 0.56957041 0.00000000)
		(-0.60000000 0.57013028 0.00000000)
		(-0.58000000 0.57069015 0.00000000)
		(-0.56000000 0.57125002 0.00000000)
		(-0.54000000 0.57180988 0.00000000)
		(-0.52000000 0.57236975 0.00000000)
		(-0.50000000 0.57292962 0.00000000)
		(-0.48000000 0.57348949 0.00000000)
		(-0.46000000 0.57404936 0.00000000)
		(-0.44000000 0.57460922 0.00000000)
		(-0.42000000 0.57516909 0.00000000)
		(-0.40000000 0.57572896 0.00000000)
		(-0.38000000 0.57628883 0.00000000)
		(-0.36000000 0.57684870 0.00000000)
		(-0.34000000 0.57740856 0.00000000)
		(-0.32000000 0.57796843 0.00000000)
		(-0.30000000 0.57852830 0.00000000)
		(-0.28000000 0.57908817 0.00000000)
		(-0.26000000 0.57964804 0.00000000)
		(-0.24000000 0.58020790 0.00000000)
		(-0.22000000 0.58076777 0.00000000)
		(-0.20000000 0.58132764 0.00000000)
		(-0.18000000 0.58188751 0.00000000)
		(-0.16000000 0.58244738 0.00000000)
		(-0.14000000 0.58300724 0.00000000)
		(-0.12000000 0.58356711 0.00000000)
		(-0.10000000 0.58412698 0.00000000)
		(-0.08162011 0.58564671 0.00000000)
		(-0.06324022 0.58313301 0.00000000)
		(-0.04486034 0.57658589 0.00000000)
		(-0.02648045 0.56600535 0.00000000)
		(-0.00810056 0.55139138 0.00000000)
		(0.01027933 0.53274399 0.00000000)
		(0.02865922 0.51006317 0.00000000)
		(0.04703911 0.48334894 0.00000000)
		(0.06541899 0.45260127 0.00000000)
		(0.08379888 0.41782019 0.00000000)
		(0.10055866 0.38507401 0.00000000)
		(0.11731844 0.35331770 0.00000000)
		(0.13407821 0.32282477 0.00000000)
		(0.15083799 0.29385788 0.00000000)
		(0.16759777 0.26666651 0.00000000)
		(0.18435754 0.24148486 0.00000000)
		(0.20111732 0.21852983 0.00000000)
		(0.21787709 0.19799914 0.00000000)
		(0.23463687 0.18006961 0.00000000)
		(0.25139665 0.16489567 0.00000000)
		(0.26815642 0.15260801 0.00000000)
		(0.28491620 0.14331248 0.00000000)
		(0.30167598 0.13708914 0.00000000)
		(0.31843575 0.13399159 0.00000000)
		(0.33519553 0.13404650 0.00000000)
		(0.35195531 0.13725341 0.00000000)
		(0.36871508 0.14358469 0.00000000)
		(0.38547486 0.15298581 0.00000000)
		(0.40223464 0.16537580 0.00000000)
		(0.41899441 0.18064795 0.00000000)
		(0.43575419 0.19867070 0.00000000)
		(0.45251397 0.21928884 0.00000000)
		(0.46927374 0.24232477 0.00000000)
		(0.48603352 0.26758008 0.00000000)
		(0.50279330 0.29483725 0.00000000)
		(0.51955307 0.32386151 0.00000000)
		(0.53631285 0.35440287 0.00000000)
		(0.55307263 0.38619826 0.00000000)
		(0.56983240 0.41897385 0.00000000)
		(0.58659218 0.45244732 0.00000000)
		(0.60335196 0.48633037 0.00000000)
		(0.62011173 0.52033115 0.00000000)
		(0.63687151 0.55415682 0.00000000)
		(0.65363128 0.58751604 0.00000000)
		(0.67039106 0.62012147 0.00000000)
		(0.68715084 0.65169227 0.00000000)
		(0.70391061 0.68195654 0.00000000)
		(0.72067039 0.71065360 0.00000000)
		(0.73743017 0.73753628 0.00000000)
		(0.75418994 0.76237303 0.00000000)
		(0.77094972 0.78494994 0.00000000)
		(0.78770950 0.80507254 0.00000000)
		(0.80446927 0.82256753 0.00000000)
		(0.82122905 0.83728420 0.00000000)
		(0.83798883 0.84909582 0.00000000)
		(0.85474860 0.85790063 0.00000000)
		(0.87150838 0.86362281 0.00000000)
		(0.88826816 0.86621307 0.00000000)
		(0.90502793 0.86564910 0.00000000)
		(0.92178771 0.86193576 0.00000000)
		(0.93854749 0.85510503 0.00000000)
		(0.95530726 0.84521574 0.00000000)
		(0.97206704 0.83235307 0.00000000)
		(0.98882682 0.81662781 0.00000000)
		(1.00558659 0.79817540 0.00000000)
		(1.02234637 0.77715478 0.00000000)
		(1.03910615 0.75374700 0.00000000)
		(1.05586592 0.72815367 0.00000000)
		(1.07262570 0.70059522 0.00000000)
		(1.08938547 0.67130903 0.00000000)
		(1.10614525 0.64054734 0.00000000)
		(1.12290503 0.60857510 0.00000000)
		(1.13966480 0.57566769 0.00000000)
		(1.15642458 0.54210854 0.00000000)
		(1.17318436 0.50818672 0.00000000)
		(1.18994413 0.47419437 0.00000000)
		(1.20670391 0.44042430 0.00000000)
		(1.22346369 0.40716735 0.00000000)
		(1.24022346 0.37470999 0.00000000)
		(1.25698324 0.34333176 0.00000000)
		(1.27374302 0.31330293 0.00000000)
		(1.29050279 0.28488214 0.00000000)
		(1.30726257 0.25831418 0.00000000)
		(1.32402235 0.23382788 0.00000000)
		(1.34078212 0.21163416 0.00000000)
		(1.35754190 0.19192416 0.00000000)
		(1.37430168 0.17486764 0.00000000)
		(1.39106145 0.16061153 0.00000000)
		(1.40782123 0.14927860 0.00000000)
		(1.42458101 0.14096648 0.00000000)
		(1.44134078 0.13574674 0.00000000)
		(1.45810056 0.13366436 0.00000000)
		(1.47486034 0.13473726 0.00000000)
		(1.49162011 0.13895620 0.00000000)
		(1.50837989 0.14628486 0.00000000)
		(1.52513966 0.15666010 0.00000000)
		(1.54189944 0.16999256 0.00000000)
		(1.55865922 0.18616741 0.00000000)
		(1.57541899 0.20504533 0.00000000)
		(1.59217877 0.22646372 0.00000000)
		(1.60893855 0.25023811 0.00000000)
		(1.62569832 0.27616373 0.00000000)
		(1.64245810 0.30401727 0.00000000)
		(1.65921788 0.33355883 0.00000000)
		(1.67597765 0.36453396 0.00000000)
		(1.69273743 0.39667588 0.00000000)
		(1.70949721 0.42970774 0.00000000)
		(1.72625698 0.46334503 0.00000000)
		(1.74301676 0.49729804 0.00000000)
		(1.75977654 0.53127432 0.00000000)
		(1.77653631 0.56498122 0.00000000)
		(1.79329609 0.59812844 0.00000000)
		(1.81005587 0.63043047 0.00000000)
		(1.82681564 0.66160909 0.00000000)
		(1.84357542 0.69139575 0.00000000)
		(1.86033520 0.71953391 0.00000000)
		(1.87709497 0.74578119 0.00000000)
		(1.89385475 0.76991153 0.00000000)
		(1.91061453 0.79171710 0.00000000)
		(1.92737430 0.81101008 0.00000000)
		(1.94413408 0.82762430 0.00000000)
		(1.96089385 0.84141666 0.00000000)
		(1.97765363 0.85226836 0.00000000)
		(1.99441341 0.86008594 0.00000000)
		(2.01117318 0.86480206 0.00000000)
		(2.02793296 0.86637610 0.00000000)
		(2.04469274 0.86479451 0.00000000)
		(2.06145251 0.86007090 0.00000000)
		(2.07821229 0.85224597 0.00000000)
		(2.09497207 0.84138711 0.00000000)
		(2.11173184 0.82758784 0.00000000)
		(2.12849162 0.81096703 0.00000000)
		(2.14525140 0.79166783 0.00000000)
		(2.16201117 0.76985646 0.00000000)
		(2.17877095 0.74572079 0.00000000)
		(2.19553073 0.71946870 0.00000000)
		(2.21229050 0.69132631 0.00000000)
		(2.22905028 0.66153600 0.00000000)
		(2.24581006 0.63035437 0.00000000)
		(2.26256983 0.59804998 0.00000000)
		(2.27932961 0.56490108 0.00000000)
		(2.29608939 0.53119318 0.00000000)
		(2.31284916 0.49721661 0.00000000)
		(2.32960894 0.46326401 0.00000000)
		(2.34636872 0.42962782 0.00000000)
		(2.36312849 0.39659775 0.00000000)
		(2.37988827 0.36445830 0.00000000)
		(2.39664804 0.33348629 0.00000000)
		(2.41340782 0.30394847 0.00000000)
		(2.43016760 0.27609926 0.00000000)
		(2.44692737 0.25017854 0.00000000)
		(2.46368715 0.22640955 0.00000000)
		(2.48044693 0.20499703 0.00000000)
		(2.49720670 0.18612539 0.00000000)
		(2.51396648 0.16995719 0.00000000)
		(2.53072626 0.15663169 0.00000000)
		(2.54748603 0.14626364 0.00000000)