/*--------------------------------*- C++ -*----------------------------------*\\
/*--------------------------------*- C++ -*----------------------------------*\\
| =========                 |                                                 |
| \\\\      /  F ield         | OpenFOAM: The Open Source CFD Toolbox           |
|  \\\\    /   O peration     | Version:  v2012                                 |
|   \\\\  /    A nd           | Website:  www.openfoam.com                      |
|    \\\\/     M anipulation  |                                                 |
\\*---------------------------------------------------------------------------*/
FoamFile
{
    version     2.0;
    format      ascii;
    class       dictionary;
    object      blockMeshDict;
}
// * * * * * * * * * * * * * * * * * * * * * * * * * * * * * * * * * * * * * //

scale   0.01;

xmin -1;
xmax 5;
ymin 0;
ymax 0.5;
zmin 0;
zmax 0.1;

vertices
(
    (-1.00000000 -0.20762854 0.00000000)
    (4.00000000 -0.03290440 0.00000000)
    (4.00000000 0.46709560 0.00000000)
    (-1.00000000 0.29237146 0.00000000)
    (-1.00000000 -0.20762854 0.10000000)
    (4.00000000 -0.03290440 0.10000000)
    (4.00000000 0.46709560 0.10000000)
    (-1.00000000 0.29237146 0.10000000)
);

blocks
(
    hex (0 1 2 3 4 5 6 7) (200 20 1) simpleGrading (1 1 1)
);

edges
(
	polyLine 0 1
	(
		(-1.00000000 -0.20762854 0.00000000)
		(-0.98000000 -0.20762854 0.00000000)
		(-0.96000000 -0.20762854 0.00000000)
		(-0.94000000 -0.20762854 0.00000000)
		(-0.92000000 -0.20762854 0.00000000)
		(-0.90000000 -0.20762854 0.00000000)
		(-0.88000000 -0.20762854 0.00000000)
		(-0.86000000 -0.20762854 0.00000000)
		(-0.84000000 -0.20762854 0.00000000)
		(-0.82000000 -0.20762854 0.00000000)
		(-0.80000000 -0.20762854 0.00000000)
		(-0.78000000 -0.20762854 0.00000000)
		(-0.76000000 -0.20762854 0.00000000)
		(-0.74000000 -0.20762854 0.00000000)
		(-0.72000000 -0.20762854 0.00000000)
		(-0.70000000 -0.20762854 0.00000000)
		(-0.68000000 -0.20762854 0.00000000)
		(-0.66000000 -0.20762854 0.00000000)
		(-0.64000000 -0.20762854 0.00000000)
		(-0.62000000 -0.20762854 0.00000000)
		(-0.60000000 -0.20762854 0.00000000)
		(-0.58000000 -0.20762854 0.00000000)
		(-0.56000000 -0.20762854 0.00000000)
		(-0.54000000 -0.20762854 0.00000000)
		(-0.52000000 -0.20762854 0.00000000)
		(-0.50000000 -0.20762854 0.00000000)
		(-0.48000000 -0.20762854 0.00000000)
		(-0.46000000 -0.20762854 0.00000000)
		(-0.44000000 -0.20762854 0.00000000)
		(-0.42000000 -0.20762854 0.00000000)
		(-0.40000000 -0.20762854 0.00000000)
		(-0.38000000 -0.20762854 0.00000000)
		(-0.36000000 -0.20762854 0.00000000)
		(-0.34000000 -0.20762854 0.00000000)
		(-0.32000000 -0.20762854 0.00000000)
		(-0.30000000 -0.20762854 0.00000000)
		(-0.28000000 -0.20762854 0.00000000)
		(-0.26000000 -0.20762854 0.00000000)
		(-0.24000000 -0.20762854 0.00000000)
		(-0.22000000 -0.20762854 0.00000000)
		(-0.20000000 -0.20762854 0.00000000)
		(-0.18000000 -0.20762854 0.00000000)
		(-0.16000000 -0.20762854 0.00000000)
		(-0.14000000 -0.20762854 0.00000000)
		(-0.12000000 -0.20762854 0.00000000)
		(-0.10000000 -0.20762854 0.00000000)
		(-0.08162011 -0.20796601 0.00000000)
		(-0.06324022 -0.20897840 0.00000000)
		(-0.04486034 -0.21066573 0.00000000)
		(-0.02648045 -0.21302799 0.00000000)
		(-0.00810056 -0.21606518 0.00000000)
		(0.01027933 -0.21977730 0.00000000)
		(0.02865922 -0.22416435 0.00000000)
		(0.04703911 -0.22922634 0.00000000)
		(0.06541899 -0.23496325 0.00000000)
		(0.08379888 -0.24137509 0.00000000)
		(0.10055866 -0.24511684 0.00000000)
		(0.11731844 -0.24780845 0.00000000)
		(0.13407821 -0.24943839 0.00000000)
		(0.15083799 -0.24999969 0.00000000)
		(0.16759777 -0.24948994 0.00000000)
		(0.18435754 -0.24791131 0.00000000)
		(0.20111732 -0.24527059 0.00000000)
		(0.21787709 -0.24157907 0.00000000)
		(0.23463687 -0.23685257 0.00000000)
		(0.25139665 -0.23111135 0.00000000)
		(0.26815642 -0.22438000 0.00000000)
		(0.28491620 -0.21668736 0.00000000)
		(0.30167598 -0.20806638 0.00000000)
		(0.31843575 -0.19855400 0.00000000)
		(0.33519553 -0.18819097 0.00000000)
		(0.35195531 -0.17702169 0.00000000)
		(0.36871508 -0.16509402 0.00000000)
		(0.38547486 -0.15245904 0.00000000)
		(0.40223464 -0.13917090 0.00000000)
		(0.41899441 -0.12528652 0.00000000)
		(0.43575419 -0.11086539 0.00000000)
		(0.45251397 -0.09596929 0.00000000)
		(0.46927374 -0.08066203 0.00000000)
		(0.48603352 -0.06500920 0.00000000)
		(0.50279330 -0.04907786 0.00000000)
		(0.51955307 -0.03293625 0.00000000)
		(0.53631285 -0.01665354 0.00000000)
		(0.55307263 -0.00029949 0.00000000)
		(0.56983240 0.01605585 0.00000000)
		(0.58659218 0.03234241 0.00000000)
		(0.60335196 0.04849040 0.00000000)
		(0.62011173 0.06443065 0.00000000)
		(0.63687151 0.08009486 0.00000000)
		(0.65363128 0.09541593 0.00000000)
		(0.67039106 0.11032822 0.00000000)
		(0.68715084 0.12476784 0.00000000)
		(0.70391061 0.13867292 0.00000000)
		(0.72067039 0.15198391 0.00000000)
		(0.73743017 0.16464376 0.00000000)
		(0.75418994 0.17659824 0.00000000)
		(0.77094972 0.18779614 0.00000000)
		(0.78770950 0.19818947 0.00000000)
		(0.80446927 0.20773373 0.00000000)
		(0.82122905 0.21638800 0.00000000)
		(0.83798883 0.22411523 0.00000000)
		(0.85474860 0.23088229 0.00000000)
		(0.87150838 0.23666021 0.00000000)
		(0.88826816 0.24142423 0.00000000)
		(0.90502793 0.24515393 0.00000000)
		(0.92178771 0.24783334 0.00000000)
		(0.93854749 0.24945098 0.00000000)
		(0.95530726 0.24999992 0.00000000)
		(0.97206704 0.24947780 0.00000000)
		(0.98882682 0.24788687 0.00000000)
		(1.00558659 0.24523394 0.00000000)
		(1.02234637 0.24153037 0.00000000)
		(1.03910615 0.23679204 0.00000000)
		(1.05586592 0.23103924 0.00000000)
		(1.07262570 0.22429662 0.00000000)
		(1.08938547 0.21659306 0.00000000)
		(1.10614525 0.20796157 0.00000000)
		(1.12290503 0.19843913 0.00000000)
		(1.13966480 0.18806654 0.00000000)
		(1.15642458 0.17688822 0.00000000)
		(1.17318436 0.16495208 0.00000000)
		(1.18994413 0.15230926 0.00000000)
		(1.20670391 0.13901390 0.00000000)
		(1.22346369 0.12512298 0.00000000)
		(1.24022346 0.11069601 0.00000000)
		(1.25698324 0.09579479 0.00000000)
		(1.27374302 0.08048317 0.00000000)
		(1.29050279 0.06482673 0.00000000)
		(1.30726257 0.04889257 0.00000000)
		(1.32402235 0.03274894 0.00000000)
		(1.34078212 0.01646501 0.00000000)
		(1.35754190 0.00011054 0.00000000)
		(1.37430168 -0.01624441 0.00000000)
		(1.39106145 -0.03252976 0.00000000)
		(1.40782123 -0.04867574 0.00000000)
		(1.42458101 -0.06461319 0.00000000)
		(1.44134078 -0.08027383 0.00000000)
		(1.45810056 -0.09559055 0.00000000)
		(1.47486034 -0.11049774 0.00000000)
		(1.49162011 -0.12493154 0.00000000)
		(1.50837989 -0.13883010 0.00000000)
		(1.52513966 -0.15213388 0.00000000)
		(1.54189944 -0.16478590 0.00000000)
		(1.55865922 -0.17673193 0.00000000)
		(1.57541899 -0.18792080 0.00000000)
		(1.59217877 -0.19830459 0.00000000)
		(1.60893855 -0.20783879 0.00000000)
		(1.62569832 -0.21648257 0.00000000)
		(1.64245810 -0.22419889 0.00000000)
		(1.65921788 -0.23095469 0.00000000)
		(1.67597765 -0.23672104 0.00000000)
		(1.69273743 -0.24147322 0.00000000)
		(1.70949721 -0.24519088 0.00000000)
		(1.72625698 -0.24785809 0.00000000)
		(1.74301676 -0.24946342 0.00000000)
		(1.75977654 -0.25000000 0.00000000)
		(1.77653631 -0.24946552 0.00000000)
		(1.79329609 -0.24786228 0.00000000)
		(1.81005587 -0.24519715 0.00000000)
		(1.82681564 -0.24148154 0.00000000)
		(1.84357542 -0.23673137 0.00000000)
		(1.86033520 -0.23096699 0.00000000)
		(1.87709497 -0.22421310 0.00000000)
		(1.89385475 -0.21649864 0.00000000)
		(1.91061453 -0.20785665 0.00000000)
		(1.92737430 -0.19832415 0.00000000)
		(1.94413408 -0.18794199 0.00000000)
		(1.96089385 -0.17675465 0.00000000)
		(1.97765363 -0.16481006 0.00000000)
		(1.99441341 -0.15215938 0.00000000)
		(2.01117318 -0.13885682 0.00000000)
		(2.02793296 -0.12495937 0.00000000)
		(2.04469274 -0.11052656 0.00000000)
		(2.06145251 -0.09562024 0.00000000)
		(2.07821229 -0.08030426 0.00000000)
		(2.09497207 -0.06464423 0.00000000)
		(2.11173184 -0.04870726 0.00000000)
		(2.12849162 -0.03256162 0.00000000)
		(2.14525140 -0.01627647 0.00000000)
		(2.16201117 0.00007841 0.00000000)
		(2.17877095 0.01643295 0.00000000)
		(2.19553073 0.03271709 0.00000000)
		(2.21229050 0.04886106 0.00000000)
		(2.22905028 0.06479570 0.00000000)
		(2.24581006 0.08045274 0.00000000)
		(2.26256983 0.09576511 0.00000000)
		(2.27932961 0.11066720 0.00000000)
		(2.29608939 0.12509516 0.00000000)
		(2.31284916 0.13898719 0.00000000)
		(2.32960894 0.15228377 0.00000000)
		(2.34636872 0.16492794 0.00000000)
		(2.36312849 0.17686552 0.00000000)
		(2.37988827 0.18804536 0.00000000)
		(2.39664804 0.19841959 0.00000000)
		(2.41340782 0.20794374 0.00000000)
		(2.43016760 0.21657701 0.00000000)
		(2.44692737 0.22428242 0.00000000)
		(2.46368715 0.23102696 0.00000000)
		(2.48044693 0.23678173 0.00000000)
		(2.49720670 0.24152208 0.00000000)
		(2.51396648 0.24522769 0.00000000)
		(2.53072626 0.24788270 0.00000000)
		(2.54748603 0.24947572 0.00000000)
		(2.56424581 0.24999994 0.00000000)
		(2.58100559 0.24945310 0.00000000)
		(2.59776536 0.24783756 0.00000000)
		(2.61452514 0.24516022 0.00000000)
		(2.63128492 0.24143257 0.00000000)
		(2.64804469 0.23667056 0.00000000)
		(2.66480447 0.23089461 0.00000000)
		(2.68156425 0.22412946 0.00000000)
		(2.69832402 0.21640409 0.00000000)
		(2.71508380 0.20775160 0.00000000)
		(2.73184358 0.19820906 0.00000000)
		(2.74860335 0.18781734 0.00000000)
		(2.76536313 0.17662098 0.00000000)
		(2.78212291 0.16466794 0.00000000)
		(2.79888268 0.15200942 0.00000000)
		(2.81564246 0.13869966 0.00000000)
		(2.83240223 0.12479568 0.00000000)
		(2.84916201 0.11035705 0.00000000)
		(2.86592179 0.09544563 0.00000000)
		(2.88268156 0.08012530 0.00000000)
		(2.89944134 0.06446169 0.00000000)
		(2.91620112 0.04852192 0.00000000)
		(2.93296089 0.03237427 0.00000000)
		(2.95166480 0.01997132 0.00000000)
		(2.97036872 0.00887395 0.00000000)
		(2.98907263 -0.00091785 0.00000000)
		(3.00777654 -0.00940408 0.00000000)
		(3.02648045 -0.01658473 0.00000000)
		(3.04518436 -0.02245981 0.00000000)
		(3.06388827 -0.02702932 0.00000000)
		(3.08259218 -0.03029325 0.00000000)
		(3.10129609 -0.03225161 0.00000000)
		(3.12000000 -0.03290440 0.00000000)
		(3.14000000 -0.03290440 0.00000000)
		(3.16000000 -0.03290440 0.00000000)
		(3.18000000 -0.03290440 0.00000000)
		(3.20000000 -0.03290440 0.00000000)
		(3.22000000 -0.03290440 0.00000000)
		(3.24000000 -0.03290440 0.00000000)
		(3.26000000 -0.03290440 0.00000000)
		(3.28000000 -0.03290440 0.00000000)
		(3.30000000 -0.03290440 0.00000000)
		(3.32000000 -0.03290440 0.00000000)
		(3.34000000 -0.03290440 0.00000000)
		(3.36000000 -0.03290440 0.00000000)
		(3.38000000 -0.03290440 0.00000000)
		(3.40000000 -0.03290440 0.00000000)
		(3.42000000 -0.03290440 0.00000000)
		(3.44000000 -0.03290440 0.00000000)
		(3.46000000 -0.03290440 0.00000000)
		(3.48000000 -0.03290440 0.00000000)
		(3.50000000 -0.03290440 0.00000000)
		(3.52000000 -0.03290440 0.00000000)
		(3.54000000 -0.03290440 0.00000000)
		(3.56000000 -0.03290440 0.00000000)
		(3.58000000 -0.03290440 0.00000000)
		(3.60000000 -0.03290440 0.00000000)
		(3.62000000 -0.03290440 0.00000000)
		(3.64000000 -0.03290440 0.00000000)
		(3.66000000 -0.03290440 0.00000000)
		(3.68000000 -0.03290440 0.00000000)
		(3.70000000 -0.03290440 0.00000000)
		(3.72000000 -0.03290440 0.00000000)
		(3.74000000 -0.03290440 0.00000000)
		(3.76000000 -0.03290440 0.00000000)
		(3.78000000 -0.03290440 0.00000000)
		(3.80000000 -0.03290440 0.00000000)
		(3.82000000 -0.03290440 0.00000000)
		(3.84000000 -0.03290440 0.00000000)
		(3.86000000 -0.03290440 0.00000000)
		(3.88000000 -0.03290440 0.00000000)
		(3.90000000 -0.03290440 0.00000000)
		(3.92000000 -0.03290440 0.00000000)
		(3.94000000 -0.03290440 0.00000000)
		(3.96000000 -0.03290440 0.00000000)
		(3.98000000 -0.03290440 0.00000000)
		(4.00000000 -0.03290440 0.00000000)
	)
	polyLine 4 5
	(
		(-1.00000000 -0.20762854 0.10000000)
		(-0.98000000 -0.20762854 0.10000000)
		(-0.96000000 -0.20762854 0.10000000)
		(-0.94000000 -0.20762854 0.10000000)
		(-0.92000000 -0.20762854 0.10000000)
		(-0.90000000 -0.20762854 0.10000000)
		(-0.88000000 -0.20762854 0.10000000)
		(-0.86000000 -0.20762854 0.10000000)
		(-0.84000000 -0.20762854 0.10000000)
		(-0.82000000 -0.20762854 0.10000000)
		(-0.80000000 -0.20762854 0.10000000)
		(-0.78000000 -0.20762854 0.10000000)
		(-0.76000000 -0.20762854 0.10000000)
		(-0.74000000 -0.20762854 0.10000000)
		(-0.72000000 -0.20762854 0.10000000)
		(-0.70000000 -0.20762854 0.10000000)
		(-0.68000000 -0.20762854 0.10000000)
		(-0.66000000 -0.20762854 0.10000000)
		(-0.64000000 -0.20762854 0.10000000)
		(-0.62000000 -0.20762854 0.10000000)
		(-0.60000000 -0.20762854 0.10000000)
		(-0.58000000 -0.20762854 0.10000000)
		(-0.56000000 -0.20762854 0.10000000)
		(-0.54000000 -0.20762854 0.10000000)
		(-0.52000000 -0.20762854 0.10000000)
		(-0.50000000 -0.20762854 0.10000000)
		(-0.48000000 -0.20762854 0.10000000)
		(-0.46000000 -0.20762854 0.10000000)
		(-0.44000000 -0.20762854 0.10000000)
		(-0.42000000 -0.20762854 0.10000000)
		(-0.40000000 -0.20762854 0.10000000)
		(-0.38000000 -0.20762854 0.10000000)
		(-0.36000000 -0.20762854 0.10000000)
		(-0.34000000 -0.20762854 0.10000000)
		(-0.32000000 -0.20762854 0.10000000)
		(-0.30000000 -0.20762854 0.10000000)
		(-0.28000000 -0.20762854 0.10000000)
		(-0.26000000 -0.20762854 0.10000000)
		(-0.24000000 -0.20762854 0.10000000)
		(-0.22000000 -0.20762854 0.10000000)
		(-0.20000000 -0.20762854 0.10000000)
		(-0.18000000 -0.20762854 0.10000000)
		(-0.16000000 -0.20762854 0.10000000)
		(-0.14000000 -0.20762854 0.10000000)
		(-0.12000000 -0.20762854 0.10000000)
		(-0.10000000 -0.20762854 0.10000000)
		(-0.08162011 -0.20796601 0.10000000)
		(-0.06324022 -0.20897840 0.10000000)
		(-0.04486034 -0.21066573 0.10000000)
		(-0.02648045 -0.21302799 0.10000000)
		(-0.00810056 -0.21606518 0.10000000)
		(0.01027933 -0.21977730 0.10000000)
		(0.02865922 -0.22416435 0.10000000)
		(0.04703911 -0.22922634 0.10000000)
		(0.06541899 -0.23496325 0.10000000)
		(0.08379888 -0.24137509 0.10000000)
		(0.10055866 -0.24511684 0.10000000)
		(0.11731844 -0.24780845 0.10000000)
		(0.13407821 -0.24943839 0.10000000)
		(0.15083799 -0.24999969 0.10000000)
		(0.16759777 -0.24948994 0.10000000)
		(0.18435754 -0.24791131 0.10000000)
		(0.20111732 -0.24527059 0.10000000)
		(0.21787709 -0.24157907 0.10000000)
		(0.23463687 -0.23685257 0.10000000)
		(0.25139665 -0.23111135 0.10000000)
		(0.26815642 -0.22438000 0.10000000)
		(0.28491620 -0.21668736 0.10000000)
		(0.30167598 -0.20806638 0.10000000)
		(0.31843575 -0.19855400 0.10000000)
		(0.33519553 -0.18819097 0.10000000)
		(0.35195531 -0.17702169 0.10000000)
		(0.36871508 -0.16509402 0.10000000)
		(0.38547486 -0.15245904 0.10000000)
		(0.40223464 -0.13917090 0.10000000)
		(0.41899441 -0.12528652 0.10000000)
		(0.43575419 -0.11086539 0.10000000)
		(0.45251397 -0.09596929 0.10000000)
		(0.46927374 -0.08066203 0.10000000)
		(0.48603352 -0.06500920 0.10000000)
		(0.50279330 -0.04907786 0.10000000)
		(0.51955307 -0.03293625 0.10000000)
		(0.53631285 -0.01665354 0.10000000)
		(0.55307263 -0.00029949 0.10000000)
		(0.56983240 0.01605585 0.10000000)
		(0.58659218 0.03234241 0.10000000)
		(0.60335196 0.04849040 0.10000000)
		(0.62011173 0.06443065 0.10000000)
		(0.63687151 0.08009486 0.10000000)
		(0.65363128 0.09541593 0.10000000)
		(0.67039106 0.11032822 0.10000000)
		(0.68715084 0.12476784 0.10000000)
		(0.70391061 0.13867292 0.10000000)
		(0.72067039 0.15198391 0.10000000)
		(0.73743017 0.16464376 0.10000000)
		(0.75418994 0.17659824 0.10000000)
		(0.77094972 0.18779614 0.10000000)
		(0.78770950 0.19818947 0.10000000)
		(0.80446927 0.20773373 0.10000000)
		(0.82122905 0.21638800 0.10000000)
		(0.83798883 0.22411523 0.10000000)
		(0.85474860 0.23088229 0.10000000)
		(0.87150838 0.23666021 0.10000000)
		(0.88826816 0.24142423 0.10000000)
		(0.90502793 0.24515393 0.10000000)
		(0.92178771 0.24783334 0.10000000)
		(0.93854749 0.24945098 0.10000000)
		(0.95530726 0.24999992 0.10000000)
		(0.97206704 0.24947780 0.10000000)
		(0.98882682 0.24788687 0.10000000)
		(1.00558659 0.24523394 0.10000000)
		(1.02234637 0.24153037 0.10000000)
		(1.03910615 0.23679204 0.10000000)
		(1.05586592 0.23103924 0.10000000)
		(1.07262570 0.22429662 0.10000000)
		(1.08938547 0.21659306 0.10000000)
		(1.10614525 0.20796157 0.10000000)
		(1.12290503 0.19843913 0.10000000)
		(1.13966480 0.18806654 0.10000000)
		(1.15642458 0.17688822 0.10000000)
		(1.17318436 0.16495208 0.10000000)
		(1.18994413 0.15230926 0.10000000)
		(1.20670391 0.13901390 0.10000000)
		(1.22346369 0.12512298 0.10000000)
		(1.24022346 0.11069601 0.10000000)
		(1.25698324 0.09579479 0.10000000)
		(1.27374302 0.08048317 0.10000000)
		(1.29050279 0.06482673 0.10000000)
		(1.30726257 0.04889257 0.10000000)
		(1.32402235 0.03274894 0.10000000)
		(1.34078212 0.01646501 0.10000000)
		(1.35754190 0.00011054 0.10000000)
		(1.37430168 -0.01624441 0.10000000)
		(1.39106145 -0.03252976 0.10000000)
		(1.40782123 -0.04867574 0.10000000)
		(1.42458101 -0.06461319 0.10000000)
		(1.44134078 -0.08027383 0.10000000)
		(1.45810056 -0.09559055 0.10000000)
		(1.47486034 -0.11049774 0.10000000)
		(1.49162011 -0.12493154 0.10000000)
		(1.50837989 -0.13883010 0.10000000)
		(1.52513966 -0.15213388 0.10000000)
		(1.54189944 -0.16478590 0.10000000)
		(1.55865922 -0.17673193 0.10000000)
		(1.57541899 -0.18792080 0.10000000)
		(1.59217877 -0.19830459 0.10000000)
		(1.60893855 -0.20783879 0.10000000)
		(1.62569832 -0.21648257 0.10000000)
		(1.64245810 -0.22419889 0.10000000)
		(1.65921788 -0.23095469 0.10000000)
		(1.67597765 -0.23672104 0.10000000)
		(1.69273743 -0.24147322 0.10000000)
		(1.70949721 -0.24519088 0.10000000)
		(1.72625698 -0.24785809 0.10000000)
		(1.74301676 -0.24946342 0.10000000)
		(1.75977654 -0.25000000 0.10000000)
		(1.77653631 -0.24946552 0.10000000)
		(1.79329609 -0.24786228 0.10000000)
		(1.81005587 -0.24519715 0.10000000)
		(1.82681564 -0.24148154 0.10000000)
		(1.84357542 -0.23673137 0.10000000)
		(1.86033520 -0.23096699 0.10000000)
		(1.87709497 -0.22421310 0.10000000)
		(1.89385475 -0.21649864 0.10000000)
		(1.91061453 -0.20785665 0.10000000)
		(1.92737430 -0.19832415 0.10000000)
		(1.94413408 -0.18794199 0.10000000)
		(1.96089385 -0.17675465 0.10000000)
		(1.97765363 -0.16481006 0.10000000)
		(1.99441341 -0.15215938 0.10000000)
		(2.01117318 -0.13885682 0.10000000)
		(2.02793296 -0.12495937 0.10000000)
		(2.04469274 -0.11052656 0.10000000)
		(2.06145251 -0.09562024 0.10000000)
		(2.07821229 -0.08030426 0.10000000)
		(2.09497207 -0.06464423 0.10000000)
		(2.11173184 -0.04870726 0.10000000)
		(2.12849162 -0.03256162 0.10000000)
		(2.14525140 -0.01627647 0.10000000)
		(2.16201117 0.00007841 0.10000000)
		(2.17877095 0.01643295 0.10000000)
		(2.19553073 0.03271709 0.10000000)
		(2.21229050 0.04886106 0.10000000)
		(2.22905028 0.06479570 0.10000000)
		(2.24581006 0.08045274 0.10000000)
		(2.26256983 0.09576511 0.10000000)
		(2.27932961 0.11066720 0.10000000)
		(2.29608939 0.12509516 0.10000000)
		(2.31284916 0.13898719 0.10000000)
		(2.32960894 0.15228377 0.10000000)
		(2.34636872 0.16492794 0.10000000)
		(2.36312849 0.17686552 0.10000000)
		(2.37988827 0.18804536 0.10000000)
		(2.39664804 0.19841959 0.10000000)
		(2.41340782 0.20794374 0.10000000)
		(2.43016760 0.21657701 0.10000000)
		(2.44692737 0.22428242 0.10000000)
		(2.46368715 0.23102696 0.10000000)
		(2.48044693 0.23678173 0.10000000)
		(2.49720670 0.24152208 0.10000000)
		(2.51396648 0.24522769 0.10000000)
		(2.53072626 0.24788270 0.10000000)
		(2.54748603 0.24947572 0.10000000)
		(2.56424581 0.24999994 0.10000000)
		(2.58100559 0.24945310 0.10000000)
		(2.59776536 0.24783756 0.10000000)
		(2.61452514 0.24516022 0.10000000)
		(2.63128492 0.24143257 0.10000000)
		(2.64804469 0.23667056 0.10000000)
		(2.66480447 0.23089461 0.10000000)
		(2.68156425 0.22412946 0.10000000)
		(2.69832402 0.21640409 0.10000000)
		(2.71508380 0.20775160 0.10000000)
		(2.73184358 0.19820906 0.10000000)
		(2.74860335 0.18781734 0.10000000)
		(2.76536313 0.17662098 0.10000000)
		(2.78212291 0.16466794 0.10000000)
		(2.79888268 0.15200942 0.10000000)
		(2.81564246 0.13869966 0.10000000)
		(2.83240223 0.12479568 0.10000000)
		(2.84916201 0.11035705 0.10000000)
		(2.86592179 0.09544563 0.10000000)
		(2.88268156 0.08012530 0.10000000)
		(2.89944134 0.06446169 0.10000000)
		(2.91620112 0.04852192 0.10000000)
		(2.93296089 0.03237427 0.10000000)
		(2.95166480 0.01997132 0.10000000)
		(2.97036872 0.00887395 0.10000000)
		(2.98907263 -0.00091785 0.10000000)
		(3.00777654 -0.00940408 0.10000000)
		(3.02648045 -0.01658473 0.10000000)
		(3.04518436 -0.02245981 0.10000000)
		(3.06388827 -0.02702932 0.10000000)
		(3.08259218 -0.03029325 0.10000000)
		(3.10129609 -0.03225161 0.10000000)
		(3.12000000 -0.03290440 0.10000000)
		(3.14000000 -0.03290440 0.10000000)
		(3.16000000 -0.03290440 0.10000000)
		(3.18000000 -0.03290440 0.10000000)
		(3.20000000 -0.03290440 0.10000000)
		(3.22000000 -0.03290440 0.10000000)
		(3.24000000 -0.03290440 0.10000000)
		(3.26000000 -0.03290440 0.10000000)
		(3.28000000 -0.03290440 0.10000000)
		(3.30000000 -0.03290440 0.10000000)
		(3.32000000 -0.03290440 0.10000000)
		(3.34000000 -0.03290440 0.10000000)
		(3.36000000 -0.03290440 0.10000000)
		(3.38000000 -0.03290440 0.10000000)
		(3.40000000 -0.03290440 0.10000000)
		(3.42000000 -0.03290440 0.10000000)
		(3.44000000 -0.03290440 0.10000000)
		(3.46000000 -0.03290440 0.10000000)
		(3.48000000 -0.03290440 0.10000000)
		(3.50000000 -0.03290440 0.10000000)
		(3.52000000 -0.03290440 0.10000000)
		(3.54000000 -0.03290440 0.10000000)
		(3.56000000 -0.03290440 0.10000000)
		(3.58000000 -0.03290440 0.10000000)
		(3.60000000 -0.03290440 0.10000000)
		(3.62000000 -0.03290440 0.10000000)
		(3.64000000 -0.03290440 0.10000000)
		(3.66000000 -0.03290440 0.10000000)
		(3.68000000 -0.03290440 0.10000000)
		(3.70000000 -0.03290440 0.10000000)
		(3.72000000 -0.03290440 0.10000000)
		(3.74000000 -0.03290440 0.10000000)
		(3.76000000 -0.03290440 0.10000000)
		(3.78000000 -0.03290440 0.10000000)
		(3.80000000 -0.03290440 0.10000000)
		(3.82000000 -0.03290440 0.10000000)
		(3.84000000 -0.03290440 0.10000000)
		(3.86000000 -0.03290440 0.10000000)
		(3.88000000 -0.03290440 0.10000000)
		(3.90000000 -0.03290440 0.10000000)
		(3.92000000 -0.03290440 0.10000000)
		(3.94000000 -0.03290440 0.10000000)
		(3.96000000 -0.03290440 0.10000000)
		(3.98000000 -0.03290440 0.10000000)
		(4.00000000 -0.03290440 0.10000000)
	)
	polyLine 3 2
	(
		(-1.00000000 0.29237146 0.00000000)
		(-0.98000000 0.29318284 0.00000000)
		(-0.96000000 0.29399422 0.00000000)
		(-0.94000000 0.29480561 0.00000000)
		(-0.92000000 0.29561699 0.00000000)
		(-0.90000000 0.29642838 0.00000000)
		(-0.88000000 0.29723976 0.00000000)
		(-0.86000000 0.29805114 0.00000000)
		(-0.84000000 0.29886253 0.00000000)
		(-0.82000000 0.29967391 0.00000000)
		(-0.80000000 0.30048529 0.00000000)
		(-0.78000000 0.30129668 0.00000000)
		(-0.76000000 0.30210806 0.00000000)
		(-0.74000000 0.30291944 0.00000000)
		(-0.72000000 0.30373083 0.00000000)
		(-0.70000000 0.30454221 0.00000000)
		(-0.68000000 0.30535359 0.00000000)
		(-0.66000000 0.30616498 0.00000000)
		(-0.64000000 0.30697636 0.00000000)
		(-0.62000000 0.30778775 0.00000000)
		(-0.60000000 0.30859913 0.00000000)
		(-0.58000000 0.30941051 0.00000000)
		(-0.56000000 0.31022190 0.00000000)
		(-0.54000000 0.31103328 0.00000000)
		(-0.52000000 0.31184466 0.00000000)
		(-0.50000000 0.31265605 0.00000000)
		(-0.48000000 0.31346743 0.00000000)
		(-0.46000000 0.31427881 0.00000000)
		(-0.44000000 0.31509020 0.00000000)
		(-0.42000000 0.31590158 0.00000000)
		(-0.40000000 0.31671297 0.00000000)
		(-0.38000000 0.31752435 0.00000000)
		(-0.36000000 0.31833573 0.00000000)
		(-0.34000000 0.31914712 0.00000000)
		(-0.32000000 0.31995850 0.00000000)
		(-0.30000000 0.32076988 0.00000000)
		(-0.28000000 0.32158127 0.00000000)
		(-0.26000000 0.32239265 0.00000000)
		(-0.24000000 0.32320403 0.00000000)
		(-0.22000000 0.32401542 0.00000000)
		(-0.20000000 0.32482680 0.00000000)
		(-0.18000000 0.32563818 0.00000000)
		(-0.16000000 0.32644957 0.00000000)
		(-0.14000000 0.32726095 0.00000000)
		(-0.12000000 0.32807234 0.00000000)
		(-0.10000000 0.32888372 0.00000000)
		(-0.08162011 0.32963344 0.00000000)
		(-0.06324022 0.32968235 0.00000000)
		(-0.04486034 0.32903046 0.00000000)
		(-0.02648045 0.32767776 0.00000000)
		(-0.00810056 0.32562426 0.00000000)
		(0.01027933 0.32286995 0.00000000)
		(0.02865922 0.31941484 0.00000000)
		(0.04703911 0.31525892 0.00000000)
		(0.06541899 0.31040220 0.00000000)
		(0.08379888 0.30484467 0.00000000)
		(0.10055866 0.30181941 0.00000000)
		(0.11731844 0.29964321 0.00000000)
		(0.13407821 0.29832537 0.00000000)
		(0.15083799 0.29787155 0.00000000)
		(0.16759777 0.29828370 0.00000000)
		(0.18435754 0.29956004 0.00000000)
		(0.20111732 0.30169510 0.00000000)
		(0.21787709 0.30467975 0.00000000)
		(0.23463687 0.30850119 0.00000000)
		(0.25139665 0.31314305 0.00000000)
		(0.26815642 0.31858545 0.00000000)
		(0.28491620 0.32480507 0.00000000)
		(0.30167598 0.33177526 0.00000000)
		(0.31843575 0.33946616 0.00000000)
		(0.33519553 0.34784482 0.00000000)
		(0.35195531 0.35687534 0.00000000)
		(0.36871508 0.36651905 0.00000000)
		(0.38547486 0.37673461 0.00000000)
		(0.40223464 0.38747827 0.00000000)
		(0.41899441 0.39870399 0.00000000)
		(0.43575419 0.41036369 0.00000000)
		(0.45251397 0.42240741 0.00000000)
		(0.46927374 0.43478356 0.00000000)
		(0.48603352 0.44743910 0.00000000)
		(0.50279330 0.46031983 0.00000000)
		(0.51955307 0.47337055 0.00000000)
		(0.53631285 0.48653536 0.00000000)
		(0.55307263 0.49975786 0.00000000)
		(0.56983240 0.51298140 0.00000000)
		(0.58659218 0.52614932 0.00000000)
		(0.60335196 0.53920521 0.00000000)
		(0.62011173 0.55209313 0.00000000)
		(0.63687151 0.56475788 0.00000000)
		(0.65363128 0.57714519 0.00000000)
		(0.67039106 0.58920200 0.00000000)
		(0.68715084 0.60087664 0.00000000)
		(0.70391061 0.61211911 0.00000000)
		(0.72067039 0.62288124 0.00000000)
		(0.73743017 0.63311691 0.00000000)
		(0.75418994 0.64278229 0.00000000)
		(0.77094972 0.65183595 0.00000000)
		(0.78770950 0.66023912 0.00000000)
		(0.80446927 0.66795579 0.00000000)
		(0.82122905 0.67495290 0.00000000)
		(0.83798883 0.68120047 0.00000000)
		(0.85474860 0.68667175 0.00000000)
		(0.87150838 0.69134328 0.00000000)
		(0.88826816 0.69519506 0.00000000)
		(0.90502793 0.69821058 0.00000000)
		(0.92178771 0.70037692 0.00000000)
		(0.93854749 0.70168480 0.00000000)
		(0.95530726 0.70212863 0.00000000)
		(0.97206704 0.70170649 0.00000000)
		(0.98882682 0.70042020 0.00000000)
		(1.00558659 0.69827527 0.00000000)
		(1.02234637 0.69528088 0.00000000)
		(1.03910615 0.69144987 0.00000000)
		(1.05586592 0.68679864 0.00000000)
		(1.07262570 0.68134713 0.00000000)
		(1.08938547 0.67511869 0.00000000)
		(1.10614525 0.66814001 0.00000000)
		(1.12290503 0.66044097 0.00000000)
		(1.13966480 0.65205458 0.00000000)
		(1.15642458 0.64301674 0.00000000)
		(1.17318436 0.63336620 0.00000000)
		(1.18994413 0.62314429 0.00000000)
		(1.20670391 0.61239479 0.00000000)
		(1.22346369 0.60116378 0.00000000)
		(1.24022346 0.58949936 0.00000000)
		(1.25698324 0.57745150 0.00000000)
		(1.27374302 0.56507183 0.00000000)
		(1.29050279 0.55241337 0.00000000)
		(1.30726257 0.53953037 0.00000000)
		(1.32402235 0.52647800 0.00000000)
		(1.34078212 0.51331220 0.00000000)
		(1.35754190 0.50008937 0.00000000)
		(1.37430168 0.48686616 0.00000000)
		(1.39106145 0.47369921 0.00000000)
		(1.40782123 0.46064494 0.00000000)
		(1.42458101 0.44775928 0.00000000)
		(1.44134078 0.43509742 0.00000000)
		(1.45810056 0.42271363 0.00000000)
		(1.47486034 0.41066094 0.00000000)
		(1.49162011 0.39899101 0.00000000)
		(1.50837989 0.38775381 0.00000000)
		(1.52513966 0.37699751 0.00000000)
		(1.54189944 0.36676817 0.00000000)
		(1.55865922 0.35710962 0.00000000)
		(1.57541899 0.34806325 0.00000000)
		(1.59217877 0.33966781 0.00000000)
		(1.60893855 0.33195926 0.00000000)
		(1.62569832 0.32497064 0.00000000)
		(1.64245810 0.31873188 0.00000000)
		(1.65921788 0.31326972 0.00000000)
		(1.67597765 0.30860754 0.00000000)
		(1.69273743 0.30476533 0.00000000)
		(1.70949721 0.30175955 0.00000000)
		(1.72625698 0.29960307 0.00000000)
		(1.74301676 0.29830513 0.00000000)
		(1.75977654 0.29787130 0.00000000)
		(1.77653631 0.29830344 0.00000000)
		(1.79329609 0.29959968 0.00000000)
		(1.81005587 0.30175448 0.00000000)
		(1.82681564 0.30475860 0.00000000)
		(1.84357542 0.30859919 0.00000000)
		(1.86033520 0.31325977 0.00000000)
		(1.87709497 0.31872039 0.00000000)
		(1.89385475 0.32495765 0.00000000)
		(1.91061453 0.33194483 0.00000000)
		(1.92737430 0.33965199 0.00000000)
		(1.94413408 0.34804612 0.00000000)
		(1.96089385 0.35709125 0.00000000)
		(1.97765363 0.36674863 0.00000000)
		(1.99441341 0.37697689 0.00000000)
		(2.01117318 0.38773221 0.00000000)
		(2.02793296 0.39896850 0.00000000)
		(2.04469274 0.41063764 0.00000000)
		(2.06145251 0.42268962 0.00000000)
		(2.07821229 0.43507282 0.00000000)
		(2.09497207 0.44773418 0.00000000)
		(2.11173184 0.46061946 0.00000000)
		(2.12849162 0.47367345 0.00000000)
		(2.14525140 0.48684023 0.00000000)
		(2.16201117 0.50006339 0.00000000)
		(2.17877095 0.51328628 0.00000000)
		(2.19553073 0.52645225 0.00000000)
		(2.21229050 0.53950489 0.00000000)
		(2.22905028 0.55238828 0.00000000)
		(2.24581006 0.56504723 0.00000000)
		(2.26256983 0.57742751 0.00000000)
		(2.27932961 0.58947607 0.00000000)
		(2.29608939 0.60114129 0.00000000)
		(2.31284916 0.61237320 0.00000000)
		(2.32960894 0.62312368 0.00000000)
		(2.34636872 0.63334668 0.00000000)
		(2.36312849 0.64299839 0.00000000)
		(2.37988827 0.65203746 0.00000000)
		(2.39664804 0.66042517 0.00000000)
		(2.41340782 0.66812559 0.00000000)
		(2.43016760 0.67510572 0.00000000)
		(2.44692737 0.68133566 0.00000000)
		(2.46368715 0.68678871 0.00000000)
		(2.48044693 0.69144153 0.00000000)