/*--------------------------------*- C++ -*----------------------------------*\\
/*--------------------------------*- C++ -*----------------------------------*\\
| =========                 |                                                 |
| \\\\      /  F ield         | OpenFOAM: The Open Source CFD Toolbox           |
|  \\\\    /   O peration     | Version:  v2012                                 |
|   \\\\  /    A nd           | Website:  www.openfoam.com                      |
|    \\\\/     M anipulation  |                                                 |
\\*---------------------------------------------------------------------------*/
FoamFile
{
    version     2.0;
    format      ascii;
    class       dictionary;
    object      blockMeshDict;
}
// * * * * * * * * * * * * * * * * * * * * * * * * * * * * * * * * * * * * * //

scale   0.01;

xmin -1;
xmax 5;
ymin 0;
ymax 0.5;
zmin 0;
zmax 0.1;

vertices
(
    (-1.00000000 -0.24475782 0.00000000)
    (4.00000000 0.12792626 0.00000000)
    (4.00000000 0.62792626 0.00000000)
    (-1.00000000 0.25524218 0.00000000)
    (-1.00000000 -0.24475782 0.10000000)
    (4.00000000 0.12792626 0.10000000)
    (4.00000000 0.62792626 0.10000000)
    (-1.00000000 0.25524218 0.10000000)
);

blocks
(
    hex (0 1 2 3 4 5 6 7) (200 20 1) simpleGrading (1 1 1)
);

edges
(
	polyLine 0 1
	(
		(-1.00000000 -0.24475782 0.00000000)
		(-0.98000000 -0.24475782 0.00000000)
		(-0.96000000 -0.24475782 0.00000000)
		(-0.94000000 -0.24475782 0.00000000)
		(-0.92000000 -0.24475782 0.00000000)
		(-0.90000000 -0.24475782 0.00000000)
		(-0.88000000 -0.24475782 0.00000000)
		(-0.86000000 -0.24475782 0.00000000)
		(-0.84000000 -0.24475782 0.00000000)
		(-0.82000000 -0.24475782 0.00000000)
		(-0.80000000 -0.24475782 0.00000000)
		(-0.78000000 -0.24475782 0.00000000)
		(-0.76000000 -0.24475782 0.00000000)
		(-0.74000000 -0.24475782 0.00000000)
		(-0.72000000 -0.24475782 0.00000000)
		(-0.70000000 -0.24475782 0.00000000)
		(-0.68000000 -0.24475782 0.00000000)
		(-0.66000000 -0.24475782 0.00000000)
		(-0.64000000 -0.24475782 0.00000000)
		(-0.62000000 -0.24475782 0.00000000)
		(-0.60000000 -0.24475782 0.00000000)
		(-0.58000000 -0.24475782 0.00000000)
		(-0.56000000 -0.24475782 0.00000000)
		(-0.54000000 -0.24475782 0.00000000)
		(-0.52000000 -0.24475782 0.00000000)
		(-0.50000000 -0.24475782 0.00000000)
		(-0.48000000 -0.24475782 0.00000000)
		(-0.46000000 -0.24475782 0.00000000)
		(-0.44000000 -0.24475782 0.00000000)
		(-0.42000000 -0.24475782 0.00000000)
		(-0.40000000 -0.24475782 0.00000000)
		(-0.38000000 -0.24475782 0.00000000)
		(-0.36000000 -0.24475782 0.00000000)
		(-0.34000000 -0.24475782 0.00000000)
		(-0.32000000 -0.24475782 0.00000000)
		(-0.30000000 -0.24475782 0.00000000)
		(-0.28000000 -0.24475782 0.00000000)
		(-0.26000000 -0.24475782 0.00000000)
		(-0.24000000 -0.24475782 0.00000000)
		(-0.22000000 -0.24475782 0.00000000)
		(-0.20000000 -0.24475782 0.00000000)
		(-0.18000000 -0.24475782 0.00000000)
		(-0.16000000 -0.24475782 0.00000000)
		(-0.14000000 -0.24475782 0.00000000)
		(-0.12000000 -0.24475782 0.00000000)
		(-0.10000000 -0.24475782 0.00000000)
		(-0.08162011 -0.24479950 0.00000000)
		(-0.06324022 -0.24492455 0.00000000)
		(-0.04486034 -0.24513297 0.00000000)
		(-0.02648045 -0.24542476 0.00000000)
		(-0.00810056 -0.24579991 0.00000000)
		(0.01027933 -0.24625843 0.00000000)
		(0.02865922 -0.24680031 0.00000000)
		(0.04703911 -0.24742557 0.00000000)
		(0.06541899 -0.24813419 0.00000000)
		(0.08379888 -0.24892618 0.00000000)
		(0.10055866 -0.24710651 0.00000000)
		(0.11731844 -0.24441013 0.00000000)
		(0.13407821 -0.24084662 0.00000000)
		(0.15083799 -0.23642862 0.00000000)
		(0.16759777 -0.23117179 0.00000000)
		(0.18435754 -0.22509479 0.00000000)
		(0.20111732 -0.21821918 0.00000000)
		(0.21787709 -0.21056936 0.00000000)
		(0.23463687 -0.20217246 0.00000000)
		(0.25139665 -0.19305827 0.00000000)
		(0.26815642 -0.18325914 0.00000000)
		(0.28491620 -0.17280982 0.00000000)
		(0.30167598 -0.16174740 0.00000000)
		(0.31843575 -0.15011112 0.00000000)
		(0.33519553 -0.13794226 0.00000000)
		(0.35195531 -0.12528399 0.00000000)
		(0.36871508 -0.11218123 0.00000000)
		(0.38547486 -0.09868047 0.00000000)
		(0.40223464 -0.08482960 0.00000000)
		(0.41899441 -0.07067777 0.00000000)
		(0.43575419 -0.05627518 0.00000000)
		(0.45251397 -0.04167293 0.00000000)
		(0.46927374 -0.02692283 0.00000000)
		(0.48603352 -0.01207721 0.00000000)
		(0.50279330 0.00281126 0.00000000)
		(0.51955307 0.01768975 0.00000000)
		(0.53631285 0.03250548 0.00000000)
		(0.55307263 0.04720589 0.00000000)
		(0.56983240 0.06173882 0.00000000)
		(0.58659218 0.07605270 0.00000000)
		(0.60335196 0.09009676 0.00000000)
		(0.62011173 0.10382116 0.00000000)
		(0.63687151 0.11717722 0.00000000)
		(0.65363128 0.13011755 0.00000000)
		(0.67039106 0.14259624 0.00000000)
		(0.68715084 0.15456901 0.00000000)
		(0.70391061 0.16599339 0.00000000)
		(0.72067039 0.17682884 0.00000000)
		(0.73743017 0.18703693 0.00000000)
		(0.75418994 0.19658143 0.00000000)
		(0.77094972 0.20542848 0.00000000)
		(0.78770950 0.21354670 0.00000000)
		(0.80446927 0.22090727 0.00000000)
		(0.82122905 0.22748410 0.00000000)
		(0.83798883 0.23325384 0.00000000)
		(0.85474860 0.23819602 0.00000000)
		(0.87150838 0.24229311 0.00000000)
		(0.88826816 0.24553057 0.00000000)
		(0.90502793 0.24789692 0.00000000)
		(0.92178771 0.24938375 0.00000000)
		(0.93854749 0.24998581 0.00000000)
		(0.95530726 0.24970094 0.00000000)
		(0.97206704 0.24853017 0.00000000)
		(0.98882682 0.24647763 0.00000000)
		(1.00558659 0.24355063 0.00000000)
		(1.02234637 0.23975953 0.00000000)
		(1.03910615 0.23511780 0.00000000)
		(1.05586592 0.22964190 0.00000000)
		(1.07262570 0.22335125 0.00000000)
		(1.08938547 0.21626818 0.00000000)
		(1.10614525 0.20841781 0.00000000)
		(1.12290503 0.19982801 0.00000000)
		(1.13966480 0.19052923 0.00000000)
		(1.15642458 0.18055449 0.00000000)
		(1.17318436 0.16993915 0.00000000)
		(1.18994413 0.15872089 0.00000000)
		(1.20670391 0.14693951 0.00000000)
		(1.22346369 0.13463680 0.00000000)
		(1.24022346 0.12185642 0.00000000)
		(1.25698324 0.10864371 0.00000000)
		(1.27374302 0.09504554 0.00000000)
		(1.29050279 0.08111016 0.00000000)
		(1.30726257 0.06688701 0.00000000)
		(1.32402235 0.05242655 0.00000000)
		(1.34078212 0.03778009 0.00000000)
		(1.35754190 0.02299959 0.00000000)
		(1.37430168 0.00813749 0.00000000)
		(1.39106145 -0.00675348 0.00000000)
		(1.40782123 -0.02162048 0.00000000)
		(1.42458101 -0.03641079 0.00000000)
		(1.44134078 -0.05107191 0.00000000)
		(1.45810056 -0.06555183 0.00000000)
		(1.47486034 -0.07979919 0.00000000)
		(1.49162011 -0.09376342 0.00000000)
		(1.50837989 -0.10739500 0.00000000)
		(1.52513966 -0.12064554 0.00000000)
		(1.54189944 -0.13346806 0.00000000)
		(1.55865922 -0.14581704 0.00000000)
		(1.57541899 -0.15764868 0.00000000)
		(1.59217877 -0.16892101 0.00000000)
		(1.60893855 -0.17959402 0.00000000)
		(1.62569832 -0.18962985 0.00000000)
		(1.64245810 -0.19899290 0.00000000)
		(1.65921788 -0.20764994 0.00000000)
		(1.67597765 -0.21557027 0.00000000)
		(1.69273743 -0.22272578 0.00000000)
		(1.70949721 -0.22909108 0.00000000)
		(1.72625698 -0.23464360 0.00000000)
		(1.74301676 -0.23936362 0.00000000)
		(1.75977654 -0.24323442 0.00000000)
		(1.77653631 -0.24624224 0.00000000)
		(1.79329609 -0.24837643 0.00000000)
		(1.81005587 -0.24962941 0.00000000)
		(1.82681564 -0.24999673 0.00000000)
		(1.84357542 -0.24947709 0.00000000)
		(1.86033520 -0.24807234 0.00000000)
		(1.87709497 -0.24578745 0.00000000)
		(1.89385475 -0.24263054 0.00000000)
		(1.91061453 -0.23861280 0.00000000)
		(1.92737430 -0.23374850 0.00000000)
		(1.94413408 -0.22805488 0.00000000)
		(1.96089385 -0.22155215 0.00000000)
		(1.97765363 -0.21426338 0.00000000)
		(1.99441341 -0.20621443 0.00000000)
		(2.01117318 -0.19743385 0.00000000)
		(2.02793296 -0.18795280 0.00000000)
		(2.04469274 -0.17780492 0.00000000)
		(2.06145251 -0.16702621 0.00000000)
		(2.07821229 -0.15565490 0.00000000)
		(2.09497207 -0.14373135 0.00000000)
		(2.11173184 -0.13129786 0.00000000)
		(2.12849162 -0.11839854 0.00000000)
		(2.14525140 -0.10507915 0.00000000)
		(2.16201117 -0.09138696 0.00000000)
		(2.17877095 -0.07737054 0.00000000)
		(2.19553073 -0.06307961 0.00000000)
		(2.21229050 -0.04856489 0.00000000)
		(2.22905028 -0.03387786 0.00000000)
		(2.24581006 -0.01907064 0.00000000)
		(2.26256983 -0.00419576 0.00000000)
		(2.27932961 0.01069401 0.00000000)
		(2.29608939 0.02554584 0.00000000)
		(2.31284916 0.04030703 0.00000000)
		(2.32960894 0.05492522 0.00000000)
		(2.34636872 0.06934854 0.00000000)
		(2.36312849 0.08352582 0.00000000)
		(2.37988827 0.09740676 0.00000000)
		(2.39664804 0.11094211 0.00000000)
		(2.41340782 0.12408386 0.00000000)
		(2.43016760 0.13678536 0.00000000)
		(2.44692737 0.14900157 0.00000000)
		(2.46368715 0.16068914 0.00000000)
		(2.48044693 0.17180661 0.00000000)
		(2.49720670 0.18231452 0.00000000)
		(2.51396648 0.19217560 0.00000000)
		(2.53072626 0.20135487 0.00000000)
		(2.54748603 0.20981975 0.00000000)
		(2.56424581 0.21754022 0.00000000)
		(2.58100559 0.22448888 0.00000000)
		(2.59776536 0.23064108 0.00000000)
		(2.61452514 0.23597499 0.00000000)
		(2.63128492 0.24047169 0.00000000)
		(2.64804469 0.24411522 0.00000000)
		(2.66480447 0.24689266 0.00000000)
		(2.68156425 0.24879416 0.00000000)
		(2.69832402 0.24981296 0.00000000)
		(2.71508380 0.24994546 0.00000000)
		(2.73184358 0.24919118 0.00000000)
		(2.74860335 0.24755280 0.00000000)
		(2.76536313 0.24503613 0.00000000)
		(2.78212291 0.24165010 0.00000000)
		(2.79888268 0.23740672 0.00000000)
		(2.81564246 0.23232105 0.00000000)
		(2.83240223 0.22641114 0.00000000)
		(2.84916201 0.21969794 0.00000000)
		(2.86592179 0.21220529 0.00000000)
		(2.88268156 0.20395975 0.00000000)
		(2.89944134 0.19499059 0.00000000)
		(2.91620112 0.18532962 0.00000000)
		(2.93296089 0.17501113 0.00000000)
		(2.95166480 0.16606500 0.00000000)
		(2.97036872 0.15806057 0.00000000)
		(2.98907263 0.15099784 0.00000000)
		(3.00777654 0.14487681 0.00000000)
		(3.02648045 0.13969747 0.00000000)
		(3.04518436 0.13545984 0.00000000)
		(3.06388827 0.13216390 0.00000000)
		(3.08259218 0.12980965 0.00000000)
		(3.10129609 0.12839711 0.00000000)
		(3.12000000 0.12792626 0.00000000)
		(3.14000000 0.12792626 0.00000000)
		(3.16000000 0.12792626 0.00000000)
		(3.18000000 0.12792626 0.00000000)
		(3.20000000 0.12792626 0.00000000)
		(3.22000000 0.12792626 0.00000000)
		(3.24000000 0.12792626 0.00000000)
		(3.26000000 0.12792626 0.00000000)
		(3.28000000 0.12792626 0.00000000)
		(3.30000000 0.12792626 0.00000000)
		(3.32000000 0.12792626 0.00000000)
		(3.34000000 0.12792626 0.00000000)
		(3.36000000 0.12792626 0.00000000)
		(3.38000000 0.12792626 0.00000000)
		(3.40000000 0.12792626 0.00000000)
		(3.42000000 0.12792626 0.00000000)
		(3.44000000 0.12792626 0.00000000)
		(3.46000000 0.12792626 0.00000000)
		(3.48000000 0.12792626 0.00000000)
		(3.50000000 0.12792626 0.00000000)
		(3.52000000 0.12792626 0.00000000)
		(3.54000000 0.12792626 0.00000000)
		(3.56000000 0.12792626 0.00000000)
		(3.58000000 0.12792626 0.00000000)
		(3.60000000 0.12792626 0.00000000)
		(3.62000000 0.12792626 0.00000000)
		(3.64000000 0.12792626 0.00000000)
		(3.66000000 0.12792626 0.00000000)
		(3.68000000 0.12792626 0.00000000)
		(3.70000000 0.12792626 0.00000000)
		(3.72000000 0.12792626 0.00000000)
		(3.74000000 0.12792626 0.00000000)
		(3.76000000 0.12792626 0.00000000)
		(3.78000000 0.12792626 0.00000000)
		(3.80000000 0.12792626 0.00000000)
		(3.82000000 0.12792626 0.00000000)
		(3.84000000 0.12792626 0.00000000)
		(3.86000000 0.12792626 0.00000000)
		(3.88000000 0.12792626 0.00000000)
		(3.90000000 0.12792626 0.00000000)
		(3.92000000 0.12792626 0.00000000)
		(3.94000000 0.12792626 0.00000000)
		(3.96000000 0.12792626 0.00000000)
		(3.98000000 0.12792626 0.00000000)
		(4.00000000 0.12792626 0.00000000)
	)
	polyLine 4 5
	(
		(-1.00000000 -0.24475782 0.10000000)
		(-0.98000000 -0.24475782 0.10000000)
		(-0.96000000 -0.24475782 0.10000000)
		(-0.94000000 -0.24475782 0.10000000)
		(-0.92000000 -0.24475782 0.10000000)
		(-0.90000000 -0.24475782 0.10000000)
		(-0.88000000 -0.24475782 0.10000000)
		(-0.86000000 -0.24475782 0.10000000)
		(-0.84000000 -0.24475782 0.10000000)
		(-0.82000000 -0.24475782 0.10000000)
		(-0.80000000 -0.24475782 0.10000000)
		(-0.78000000 -0.24475782 0.10000000)
		(-0.76000000 -0.24475782 0.10000000)
		(-0.74000000 -0.24475782 0.10000000)
		(-0.72000000 -0.24475782 0.10000000)
		(-0.70000000 -0.24475782 0.10000000)
		(-0.68000000 -0.24475782 0.10000000)
		(-0.66000000 -0.24475782 0.10000000)
		(-0.64000000 -0.24475782 0.10000000)
		(-0.62000000 -0.24475782 0.10000000)
		(-0.60000000 -0.24475782 0.10000000)
		(-0.58000000 -0.24475782 0.10000000)
		(-0.56000000 -0.24475782 0.10000000)
		(-0.54000000 -0.24475782 0.10000000)
		(-0.52000000 -0.24475782 0.10000000)
		(-0.50000000 -0.24475782 0.10000000)
		(-0.48000000 -0.24475782 0.10000000)
		(-0.46000000 -0.24475782 0.10000000)
		(-0.44000000 -0.24475782 0.10000000)
		(-0.42000000 -0.24475782 0.10000000)
		(-0.40000000 -0.24475782 0.10000000)
		(-0.38000000 -0.24475782 0.10000000)
		(-0.36000000 -0.24475782 0.10000000)
		(-0.34000000 -0.24475782 0.10000000)
		(-0.32000000 -0.24475782 0.10000000)
		(-0.30000000 -0.24475782 0.10000000)
		(-0.28000000 -0.24475782 0.10000000)
		(-0.26000000 -0.24475782 0.10000000)
		(-0.24000000 -0.24475782 0.10000000)
		(-0.22000000 -0.24475782 0.10000000)
		(-0.20000000 -0.24475782 0.10000000)
		(-0.18000000 -0.24475782 0.10000000)
		(-0.16000000 -0.24475782 0.10000000)
		(-0.14000000 -0.24475782 0.10000000)
		(-0.12000000 -0.24475782 0.10000000)
		(-0.10000000 -0.24475782 0.10000000)
		(-0.08162011 -0.24479950 0.10000000)
		(-0.06324022 -0.24492455 0.10000000)
		(-0.04486034 -0.24513297 0.10000000)
		(-0.02648045 -0.24542476 0.10000000)
		(-0.00810056 -0.24579991 0.10000000)
		(0.01027933 -0.24625843 0.10000000)
		(0.02865922 -0.24680031 0.10000000)
		(0.04703911 -0.24742557 0.10000000)
		(0.06541899 -0.24813419 0.10000000)
		(0.08379888 -0.24892618 0.10000000)
		(0.10055866 -0.24710651 0.10000000)
		(0.11731844 -0.24441013 0.10000000)
		(0.13407821 -0.24084662 0.10000000)
		(0.15083799 -0.23642862 0.10000000)
		(0.16759777 -0.23117179 0.10000000)
		(0.18435754 -0.22509479 0.10000000)
		(0.20111732 -0.21821918 0.10000000)
		(0.21787709 -0.21056936 0.10000000)
		(0.23463687 -0.20217246 0.10000000)
		(0.25139665 -0.19305827 0.10000000)
		(0.26815642 -0.18325914 0.10000000)
		(0.28491620 -0.17280982 0.10000000)
		(0.30167598 -0.16174740 0.10000000)
		(0.31843575 -0.15011112 0.10000000)
		(0.33519553 -0.13794226 0.10000000)
		(0.35195531 -0.12528399 0.10000000)
		(0.36871508 -0.11218123 0.10000000)
		(0.38547486 -0.09868047 0.10000000)
		(0.40223464 -0.08482960 0.10000000)
		(0.41899441 -0.07067777 0.10000000)
		(0.43575419 -0.05627518 0.10000000)
		(0.45251397 -0.04167293 0.10000000)
		(0.46927374 -0.02692283 0.10000000)
		(0.48603352 -0.01207721 0.10000000)
		(0.50279330 0.00281126 0.10000000)
		(0.51955307 0.01768975 0.10000000)
		(0.53631285 0.03250548 0.10000000)
		(0.55307263 0.04720589 0.10000000)
		(0.56983240 0.06173882 0.10000000)
		(0.58659218 0.07605270 0.10000000)
		(0.60335196 0.09009676 0.10000000)
		(0.62011173 0.10382116 0.10000000)
		(0.63687151 0.11717722 0.10000000)
		(0.65363128 0.13011755 0.10000000)
		(0.67039106 0.14259624 0.10000000)
		(0.68715084 0.15456901 0.10000000)
		(0.70391061 0.16599339 0.10000000)
		(0.72067039 0.17682884 0.10000000)
		(0.73743017 0.18703693 0.10000000)
		(0.75418994 0.19658143 0.10000000)
		(0.77094972 0.20542848 0.10000000)
		(0.78770950 0.21354670 0.10000000)
		(0.80446927 0.22090727 0.10000000)
		(0.82122905 0.22748410 0.10000000)
		(0.83798883 0.23325384 0.10000000)
		(0.85474860 0.23819602 0.10000000)
		(0.87150838 0.24229311 0.10000000)
		(0.88826816 0.24553057 0.10000000)
		(0.90502793 0.24789692 0.10000000)
		(0.92178771 0.24938375 0.10000000)
		(0.93854749 0.24998581 0.10000000)
		(0.95530726 0.24970094 0.10000000)
		(0.97206704 0.24853017 0.10000000)
		(0.98882682 0.24647763 0.10000000)
		(1.00558659 0.24355063 0.10000000)
		(1.02234637 0.23975953 0.10000000)
		(1.03910615 0.23511780 0.10000000)
		(1.05586592 0.22964190 0.10000000)
		(1.07262570 0.22335125 0.10000000)
		(1.08938547 0.21626818 0.10000000)
		(1.10614525 0.20841781 0.10000000)
		(1.12290503 0.19982801 0.10000000)
		(1.13966480 0.19052923 0.10000000)
		(1.15642458 0.18055449 0.10000000)
		(1.17318436 0.16993915 0.10000000)
		(1.18994413 0.15872089 0.10000000)
		(1.20670391 0.14693951 0.10000000)
		(1.22346369 0.13463680 0.10000000)
		(1.24022346 0.12185642 0.10000000)
		(1.25698324 0.10864371 0.10000000)
		(1.27374302 0.09504554 0.10000000)
		(1.29050279 0.08111016 0.10000000)
		(1.30726257 0.06688701 0.10000000)
		(1.32402235 0.05242655 0.10000000)
		(1.34078212 0.03778009 0.10000000)
		(1.35754190 0.02299959 0.10000000)
		(1.37430168 0.00813749 0.10000000)
		(1.39106145 -0.00675348 0.10000000)
		(1.40782123 -0.02162048 0.10000000)
		(1.42458101 -0.03641079 0.10000000)
		(1.44134078 -0.05107191 0.10000000)
		(1.45810056 -0.06555183 0.10000000)
		(1.47486034 -0.07979919 0.10000000)
		(1.49162011 -0.09376342 0.10000000)
		(1.50837989 -0.10739500 0.10000000)
		(1.52513966 -0.12064554 0.10000000)
		(1.54189944 -0.13346806 0.10000000)
		(1.55865922 -0.14581704 0.10000000)
		(1.57541899 -0.15764868 0.10000000)
		(1.59217877 -0.16892101 0.10000000)
		(1.60893855 -0.17959402 0.10000000)
		(1.62569832 -0.18962985 0.10000000)
		(1.64245810 -0.19899290 0.10000000)
		(1.65921788 -0.20764994 0.10000000)
		(1.67597765 -0.21557027 0.10000000)
		(1.69273743 -0.22272578 0.10000000)
		(1.70949721 -0.22909108 0.10000000)
		(1.72625698 -0.23464360 0.10000000)
		(1.74301676 -0.23936362 0.10000000)
		(1.75977654 -0.24323442 0.10000000)
		(1.77653631 -0.24624224 0.10000000)
		(1.79329609 -0.24837643 0.10000000)
		(1.81005587 -0.24962941 0.10000000)
		(1.82681564 -0.24999673 0.10000000)
		(1.84357542 -0.24947709 0.10000000)
		(1.86033520 -0.24807234 0.10000000)
		(1.87709497 -0.24578745 0.10000000)
		(1.89385475 -0.24263054 0.10000000)
		(1.91061453 -0.23861280 0.10000000)
		(1.92737430 -0.23374850 0.10000000)
		(1.94413408 -0.22805488 0.10000000)
		(1.96089385 -0.22155215 0.10000000)
		(1.97765363 -0.21426338 0.10000000)
		(1.99441341 -0.20621443 0.10000000)
		(2.01117318 -0.19743385 0.10000000)
		(2.02793296 -0.18795280 0.10000000)
		(2.04469274 -0.17780492 0.10000000)
		(2.06145251 -0.16702621 0.10000000)
		(2.07821229 -0.15565490 0.10000000)
		(2.09497207 -0.14373135 0.10000000)
		(2.11173184 -0.13129786 0.10000000)
		(2.12849162 -0.11839854 0.10000000)
		(2.14525140 -0.10507915 0.10000000)
		(2.16201117 -0.09138696 0.10000000)
		(2.17877095 -0.07737054 0.10000000)
		(2.19553073 -0.06307961 0.10000000)
		(2.21229050 -0.04856489 0.10000000)
		(2.22905028 -0.03387786 0.10000000)
		(2.24581006 -0.01907064 0.10000000)
		(2.26256983 -0.00419576 0.10000000)
		(2.27932961 0.01069401 0.10000000)
		(2.29608939 0.02554584 0.10000000)
		(2.31284916 0.04030703 0.10000000)
		(2.32960894 0.05492522 0.10000000)
		(2.34636872 0.06934854 0.10000000)
		(2.36312849 0.08352582 0.10000000)
		(2.37988827 0.09740676 0.10000000)
		(2.39664804 0.11094211 0.10000000)
		(2.41340782 0.12408386 0.10000000)
		(2.43016760 0.13678536 0.10000000)
		(2.44692737 0.14900157 0.10000000)
		(2.46368715 0.16068914 0.10000000)
		(2.48044693 0.17180661 0.10000000)
		(2.49720670 0.18231452 0.10000000)
		(2.51396648 0.19217560 0.10000000)
		(2.53072626 0.20135487 0.10000000)
		(2.54748603 0.20981975 0.10000000)
		(2.56424581 0.21754022 0.10000000)
		(2.58100559 0.22448888 0.10000000)
		(2.59776536 0.23064108 0.10000000)
		(2.61452514 0.23597499 0.10000000)
		(2.63128492 0.24047169 0.10000000)
		(2.64804469 0.24411522 0.10000000)
		(2.66480447 0.24689266 0.10000000)
		(2.68156425 0.24879416 0.10000000)
		(2.69832402 0.24981296 0.10000000)
		(2.71508380 0.24994546 0.10000000)
		(2.73184358 0.24919118 0.10000000)
		(2.74860335 0.24755280 0.10000000)
		(2.76536313 0.24503613 0.10000000)
		(2.78212291 0.24165010 0.10000000)
		(2.79888268 0.23740672 0.10000000)
		(2.81564246 0.23232105 0.10000000)
		(2.83240223 0.22641114 0.10000000)
		(2.84916201 0.21969794 0.10000000)
		(2.86592179 0.21220529 0.10000000)
		(2.88268156 0.20395975 0.10000000)
		(2.89944134 0.19499059 0.10000000)
		(2.91620112 0.18532962 0.10000000)
		(2.93296089 0.17501113 0.10000000)
		(2.95166480 0.16606500 0.10000000)
		(2.97036872 0.15806057 0.10000000)
		(2.98907263 0.15099784 0.10000000)
		(3.00777654 0.14487681 0.10000000)
		(3.02648045 0.13969747 0.10000000)
		(3.04518436 0.13545984 0.10000000)
		(3.06388827 0.13216390 0.10000000)
		(3.08259218 0.12980965 0.10000000)
		(3.10129609 0.12839711 0.10000000)
		(3.12000000 0.12792626 0.10000000)
		(3.14000000 0.12792626 0.10000000)
		(3.16000000 0.12792626 0.10000000)
		(3.18000000 0.12792626 0.10000000)
		(3.20000000 0.12792626 0.10000000)
		(3.22000000 0.12792626 0.10000000)
		(3.24000000 0.12792626 0.10000000)
		(3.26000000 0.12792626 0.10000000)
		(3.28000000 0.12792626 0.10000000)
		(3.30000000 0.12792626 0.10000000)
		(3.32000000 0.12792626 0.10000000)
		(3.34000000 0.12792626 0.10000000)
		(3.36000000 0.12792626 0.10000000)
		(3.38000000 0.12792626 0.10000000)
		(3.40000000 0.12792626 0.10000000)
		(3.42000000 0.12792626 0.10000000)
		(3.44000000 0.12792626 0.10000000)
		(3.46000000 0.12792626 0.10000000)
		(3.48000000 0.12792626 0.10000000)
		(3.50000000 0.12792626 0.10000000)
		(3.52000000 0.12792626 0.10000000)
		(3.54000000 0.12792626 0.10000000)
		(3.56000000 0.12792626 0.10000000)
		(3.58000000 0.12792626 0.10000000)
		(3.60000000 0.12792626 0.10000000)
		(3.62000000 0.12792626 0.10000000)
		(3.64000000 0.12792626 0.10000000)
		(3.66000000 0.12792626 0.10000000)
		(3.68000000 0.12792626 0.10000000)
		(3.70000000 0.12792626 0.10000000)
		(3.72000000 0.12792626 0.10000000)
		(3.74000000 0.12792626 0.10000000)
		(3.76000000 0.12792626 0.10000000)
		(3.78000000 0.12792626 0.10000000)
		(3.80000000 0.12792626 0.10000000)
		(3.82000000 0.12792626 0.10000000)
		(3.84000000 0.12792626 0.10000000)
		(3.86000000 0.12792626 0.10000000)
		(3.88000000 0.12792626 0.10000000)
		(3.90000000 0.12792626 0.10000000)
		(3.92000000 0.12792626 0.10000000)
		(3.94000000 0.12792626 0.10000000)
		(3.96000000 0.12792626 0.10000000)
		(3.98000000 0.12792626 0.10000000)
		(4.00000000 0.12792626 0.10000000)
	)
	polyLine 3 2
	(
		(-1.00000000 0.25524218 0.00000000)
		(-0.98000000 0.25728150 0.00000000)
		(-0.96000000 0.25932083 0.00000000)
		(-0.94000000 0.26136015 0.00000000)
		(-0.92000000 0.26339948 0.00000000)
		(-0.90000000 0.26543880 0.00000000)
		(-0.88000000 0.26747812 0.00000000)
		(-0.86000000 0.26951745 0.00000000)
		(-0.84000000 0.27155677 0.00000000)
		(-0.82000000 0.27359609 0.00000000)
		(-0.80000000 0.27563542 0.00000000)
		(-0.78000000 0.27767474 0.00000000)
		(-0.76000000 0.27971406 0.00000000)
		(-0.74000000 0.28175339 0.00000000)
		(-0.72000000 0.28379271 0.00000000)
		(-0.70000000 0.28583203 0.00000000)
		(-0.68000000 0.28787136 0.00000000)
		(-0.66000000 0.28991068 0.00000000)
		(-0.64000000 0.29195001 0.00000000)
		(-0.62000000 0.29398933 0.00000000)
		(-0.60000000 0.29602865 0.00000000)
		(-0.58000000 0.29806798 0.00000000)
		(-0.56000000 0.30010730 0.00000000)
		(-0.54000000 0.30214662 0.00000000)
		(-0.52000000 0.30418595 0.00000000)
		(-0.50000000 0.30622527 0.00000000)
		(-0.48000000 0.30826459 0.00000000)
		(-0.46000000 0.31030392 0.00000000)
		(-0.44000000 0.31234324 0.00000000)
		(-0.42000000 0.31438256 0.00000000)
		(-0.40000000 0.31642189 0.00000000)
		(-0.38000000 0.31846121 0.00000000)
		(-0.36000000 0.32050054 0.00000000)
		(-0.34000000 0.32253986 0.00000000)
		(-0.32000000 0.32457918 0.00000000)
		(-0.30000000 0.32661851 0.00000000)
		(-0.28000000 0.32865783 0.00000000)
		(-0.26000000 0.33069715 0.00000000)
		(-0.24000000 0.33273648 0.00000000)
		(-0.22000000 0.33477580 0.00000000)
		(-0.20000000 0.33681512 0.00000000)
		(-0.18000000 0.33885445 0.00000000)
		(-0.16000000 0.34089377 0.00000000)
		(-0.14000000 0.34293309 0.00000000)
		(-0.12000000 0.34497242 0.00000000)
		(-0.10000000 0.34701174 0.00000000)
		(-0.08162011 0.34845345 0.00000000)
		(-0.06324022 0.34970124 0.00000000)
		(-0.04486034 0.35075511 0.00000000)
		(-0.02648045 0.35161507 0.00000000)
		(-0.00810056 0.35228110 0.00000000)
		(0.01027933 0.35275322 0.00000000)
		(0.02865922 0.35303141 0.00000000)
		(0.04703911 0.35311569 0.00000000)
		(0.06541899 0.35300605 0.00000000)
		(0.08379888 0.35270249 0.00000000)
		(0.10055866 0.35377924 0.00000000)
		(0.11731844 0.35537477 0.00000000)
		(0.13407821 0.35748341 0.00000000)
		(0.15083799 0.36009769 0.00000000)
		(0.16759777 0.36320832 0.00000000)
		(0.18435754 0.36680427 0.00000000)
		(0.20111732 0.37087279 0.00000000)
		(0.21787709 0.37539943 0.00000000)
		(0.23463687 0.38036815 0.00000000)
		(0.25139665 0.38576130 0.00000000)
		(0.26815642 0.39155976 0.00000000)
		(0.28491620 0.39774295 0.00000000)
		(0.30167598 0.40428893 0.00000000)
		(0.31843575 0.41117449 0.00000000)
		(0.33519553 0.41837519 0.00000000)
		(0.35195531 0.42586549 0.00000000)
		(0.36871508 0.43361881 0.00000000)
		(0.38547486 0.44160764 0.00000000)
		(0.40223464 0.44980363 0.00000000)
		(0.41899441 0.45817772 0.00000000)
		(0.43575419 0.46670019 0.00000000)
		(0.45251397 0.47534081 0.00000000)
		(0.46927374 0.48406891 0.00000000)
		(0.48603352 0.49285353 0.00000000)
		(0.50279330 0.50166351 0.00000000)
		(0.51955307 0.51046759 0.00000000)
		(0.53631285 0.51923453 0.00000000)
		(0.55307263 0.52793322 0.00000000)
		(0.56983240 0.53653282 0.00000000)
		(0.58659218 0.54500279 0.00000000)
		(0.60335196 0.55331311 0.00000000)
		(0.62011173 0.56143427 0.00000000)
		(0.63687151 0.56933748 0.00000000)
		(0.65363128 0.57699468 0.00000000)
		(0.67039106 0.58437872 0.00000000)
		(0.68715084 0.59146338 0.00000000)
		(0.70391061 0.59822355 0.00000000)
		(0.72067039 0.60463523 0.00000000)
		(0.73743017 0.61067568 0.00000000)
		(0.75418994 0.61632347 0.00000000)
		(0.77094972 0.62155855 0.00000000)
		(0.78770950 0.62636235 0.00000000)
		(0.80446927 0.63071784 0.00000000)
		(0.82122905 0.63460956 0.00000000)
		(0.83798883 0.63802369 0.00000000)
		(0.85474860 0.64094814 0.00000000)
		(0.87150838 0.64337252 0.00000000)
		(0.88826816 0.64528822 0.00000000)
		(0.90502793 0.64668847 0.00000000)
		(0.92178771 0.64756828 0.00000000)
		(0.93854749 0.64792453 0.00000000)
		(0.95530726 0.64775597 0.00000000)
		(0.97206704 0.64706318 0.00000000)
		(0.98882682 0.64584863 0.00000000)
		(1.00558659 0.64411663 0.00000000)
		(1.02234637 0.64187332 0.00000000)
		(1.03910615 0.63912666 0.00000000)
		(1.05586592 0.63588639 0.00000000)
		(1.07262570 0.63216402 0.00000000)
		(1.08938547 0.62797274 0.00000000)
		(1.10614525 0.62332743 0.00000000)
		(1.12290503 0.61824457 0.00000000)
		(1.13966480 0.61274219 0.00000000)
		(1.15642458 0.60683982 0.00000000)
		(1.17318436 0.60055839 0.00000000)
		(1.18994413 0.59392019 0.00000000)
		(1.20670391 0.58694877 0.00000000)
		(1.22346369 0.57966887 0.00000000)
		(1.24022346 0.57210631 0.00000000)
		(1.25698324 0.56428793 0.00000000)
		(1.27374302 0.55624146 0.00000000)
		(1.29050279 0.54799545 0.00000000)
		(1.30726257 0.53957916 0.00000000)
		(1.32402235 0.53102245 0.00000000)
		(1.34078212 0.52235568 0.00000000)
		(1.35754190 0.51360959 0.00000000)
		(1.37430168 0.50481521 0.00000000)
		(1.39106145 0.49600375 0.00000000)
		(1.40782123 0.48720647 0.00000000)
		(1.42458101 0.47845458 0.00000000)
		(1.44134078 0.46977913 0.00000000)
		(1.45810056 0.46121090 0.00000000)
		(1.47486034 0.45278029 0.00000000)
		(1.49162011 0.44451721 0.00000000)
		(1.50837989 0.43645098 0.00000000)
		(1.52513966 0.42861021 0.00000000)
		(1.54189944 0.42102272 0.00000000)
		(1.55865922 0.41371543 0.00000000)
		(1.57541899 0.40671427 0.00000000)
		(1.59217877 0.40004408 0.00000000)
		(1.60893855 0.39372852 0.00000000)
		(1.62569832 0.38779000 0.00000000)
		(1.64245810 0.38224959 0.00000000)
		(1.65921788 0.37712694 0.00000000)
		(1.67597765 0.37244024 0.00000000)
		(1.69273743 0.36820609 0.00000000)
		(1.70949721 0.36443954 0.00000000)
		(1.72625698 0.36115394 0.00000000)
		(1.74301676 0.35836095 0.00000000)
		(1.75977654 0.35607048 0.00000000)
		(1.77653631 0.35429066 0.00000000)
		(1.79329609 0.35302779 0.00000000)
		(1.81005587 0.35228636 0.00000000)
		(1.82681564 0.35206901 0.00000000)
		(1.84357542 0.35237649 0.00000000)
		(1.86033520 0.35320773 0.00000000)
		(1.87709497 0.35455977 0.00000000)
		(1.89385475 0.35642781 0.00000000)
		(1.91061453 0.35880524 0.00000000)
		(1.92737430 0.36168360 0.00000000)
		(1.94413408 0.36505269 0.00000000)
		(1.96089385 0.36890056 0.00000000)
		(1.97765363 0.37321356 0.00000000)
		(1.99441341 0.37797638 0.00000000)
		(2.01117318 0.38317213 0.00000000)
		(2.02793296 0.38878237 0.00000000)
		(2.04469274 0.39478719 0.00000000)
		(2.06145251 0.40116530 0.00000000)
		(2.07821229 0.40789406 0.00000000)
		(2.09497207 0.41494960 0.00000000)
		(2.11173184 0.42230689 0.00000000)
		(2.12849162 0.42993983 0.00000000)
		(2.14525140 0.43782133 0.00000000)
		(2.16201117 0.44592344 0.00000000)
		(2.17877095 0.45421740 0.00000000)
		(2.19553073 0.46267379 0.00000000)
		(2.21229050 0.47126262 0.00000000)
		(2.22905028 0.47995340 0.00000000)
		(2.24581006 0.48871530 0.00000000)
		(2.26256983 0.49751724 0.00000000)
		(2.27932961 0.50632799 0.00000000)
		(2.29608939 0.51511628 0.00000000)
		(2.31284916 0.52385095 0.00000000)
		(2.32960894 0.53250099 0.00000000)
		(2.34636872 0.54103573 0.00000000)
		(2.36312849 0.54942488 0.00000000)
		(2.37988827 0.55763867 0.00000000)
		(2.39664804 0.56564797 0.00000000)
		(2.41340782 0.57342435 0.00000000)
		(2.43016760 0.58094024 0.00000000)
		(2.44692737 0.58816896 0.00000000)
		(2.46368715 0.59508486 0.00000000)
		(2.48044693 0.60166342 0.00000000)
		(2.49720670 0.60788128 0.00000000)
		(2.51396648 0.61371640 0.00000000)
		(2.53072626 0.61914806 0.00000000)