/*--------------------------------*- C++ -*----------------------------------*\\
/*--------------------------------*- C++ -*----------------------------------*\\
| =========                 |                                                 |
| \\\\      /  F ield         | OpenFOAM: The Open Source CFD Toolbox           |
|  \\\\    /   O peration     | Version:  v2012                                 |
|   \\\\  /    A nd           | Website:  www.openfoam.com                      |
|    \\\\/     M anipulation  |                                                 |
\\*---------------------------------------------------------------------------*/
FoamFile
{
    version     2.0;
    format      ascii;
    class       dictionary;
    object      blockMeshDict;
}
// * * * * * * * * * * * * * * * * * * * * * * * * * * * * * * * * * * * * * //

scale   0.01;

xmin -1;
xmax 5;
ymin 0;
ymax 0.5;
zmin 0;
zmax 0.1;

vertices
(
    (-1.00000000 -0.24215712 0.00000000)
    (4.00000000 0.09814565 0.00000000)
    (4.00000000 0.59814565 0.00000000)
    (-1.00000000 0.25784288 0.00000000)
    (-1.00000000 -0.24215712 0.10000000)
    (4.00000000 0.09814565 0.10000000)
    (4.00000000 0.59814565 0.10000000)
    (-1.00000000 0.25784288 0.10000000)
);

blocks
(
    hex (0 1 2 3 4 5 6 7) (200 20 1) simpleGrading (1 1 1)
);

edges
(
	polyLine 0 1
	(
		(-1.00000000 -0.24215712 0.00000000)
		(-0.98000000 -0.24215712 0.00000000)
		(-0.96000000 -0.24215712 0.00000000)
		(-0.94000000 -0.24215712 0.00000000)
		(-0.92000000 -0.24215712 0.00000000)
		(-0.90000000 -0.24215712 0.00000000)
		(-0.88000000 -0.24215712 0.00000000)
		(-0.86000000 -0.24215712 0.00000000)
		(-0.84000000 -0.24215712 0.00000000)
		(-0.82000000 -0.24215712 0.00000000)
		(-0.80000000 -0.24215712 0.00000000)
		(-0.78000000 -0.24215712 0.00000000)
		(-0.76000000 -0.24215712 0.00000000)
		(-0.74000000 -0.24215712 0.00000000)
		(-0.72000000 -0.24215712 0.00000000)
		(-0.70000000 -0.24215712 0.00000000)
		(-0.68000000 -0.24215712 0.00000000)
		(-0.66000000 -0.24215712 0.00000000)
		(-0.64000000 -0.24215712 0.00000000)
		(-0.62000000 -0.24215712 0.00000000)
		(-0.60000000 -0.24215712 0.00000000)
		(-0.58000000 -0.24215712 0.00000000)
		(-0.56000000 -0.24215712 0.00000000)
		(-0.54000000 -0.24215712 0.00000000)
		(-0.52000000 -0.24215712 0.00000000)
		(-0.50000000 -0.24215712 0.00000000)
		(-0.48000000 -0.24215712 0.00000000)
		(-0.46000000 -0.24215712 0.00000000)
		(-0.44000000 -0.24215712 0.00000000)
		(-0.42000000 -0.24215712 0.00000000)
		(-0.40000000 -0.24215712 0.00000000)
		(-0.38000000 -0.24215712 0.00000000)
		(-0.36000000 -0.24215712 0.00000000)
		(-0.34000000 -0.24215712 0.00000000)
		(-0.32000000 -0.24215712 0.00000000)
		(-0.30000000 -0.24215712 0.00000000)
		(-0.28000000 -0.24215712 0.00000000)
		(-0.26000000 -0.24215712 0.00000000)
		(-0.24000000 -0.24215712 0.00000000)
		(-0.22000000 -0.24215712 0.00000000)
		(-0.20000000 -0.24215712 0.00000000)
		(-0.18000000 -0.24215712 0.00000000)
		(-0.16000000 -0.24215712 0.00000000)
		(-0.14000000 -0.24215712 0.00000000)
		(-0.12000000 -0.24215712 0.00000000)
		(-0.10000000 -0.24215712 0.00000000)
		(-0.08162011 -0.24223220 0.00000000)
		(-0.06324022 -0.24245745 0.00000000)
		(-0.04486034 -0.24283287 0.00000000)
		(-0.02648045 -0.24335845 0.00000000)
		(-0.00810056 -0.24403420 0.00000000)
		(0.01027933 -0.24486012 0.00000000)
		(0.02865922 -0.24583620 0.00000000)
		(0.04703911 -0.24696245 0.00000000)
		(0.06541899 -0.24823887 0.00000000)
		(0.08379888 -0.24966545 0.00000000)
		(0.10055866 -0.24842477 0.00000000)
		(0.11731844 -0.24627277 0.00000000)
		(0.13407821 -0.24321732 0.00000000)
		(0.15083799 -0.23926964 0.00000000)
		(0.16759777 -0.23444421 0.00000000)
		(0.18435754 -0.22875874 0.00000000)
		(0.20111732 -0.22223408 0.00000000)
		(0.21787709 -0.21489416 0.00000000)
		(0.23463687 -0.20676591 0.00000000)
		(0.25139665 -0.19787916 0.00000000)
		(0.26815642 -0.18826649 0.00000000)
		(0.28491620 -0.17796318 0.00000000)
		(0.30167598 -0.16700701 0.00000000)
		(0.31843575 -0.15543819 0.00000000)
		(0.33519553 -0.14329916 0.00000000)
		(0.35195531 -0.13063444 0.00000000)
		(0.36871508 -0.11749049 0.00000000)
		(0.38547486 -0.10391553 0.00000000)
		(0.40223464 -0.08995937 0.00000000)
		(0.41899441 -0.07567319 0.00000000)
		(0.43575419 -0.06110941 0.00000000)
		(0.45251397 -0.04632146 0.00000000)
		(0.46927374 -0.03136357 0.00000000)
		(0.48603352 -0.01629063 0.00000000)
		(0.50279330 -0.00115793 0.00000000)
		(0.51955307 0.01397902 0.00000000)
		(0.53631285 0.02906468 0.00000000)
		(0.55307263 0.04404373 0.00000000)
		(0.56983240 0.05886120 0.00000000)
		(0.58659218 0.07346275 0.00000000)
		(0.60335196 0.08779480 0.00000000)
		(0.62011173 0.10180477 0.00000000)
		(0.63687151 0.11544129 0.00000000)
		(0.65363128 0.12865431 0.00000000)
		(0.67039106 0.14139537 0.00000000)
		(0.68715084 0.15361773 0.00000000)
		(0.70391061 0.16527655 0.00000000)
		(0.72067039 0.17632906 0.00000000)
		(0.73743017 0.18673472 0.00000000)
		(0.75418994 0.19645534 0.00000000)
		(0.77094972 0.20545529 0.00000000)
		(0.78770950 0.21370153 0.00000000)
		(0.80446927 0.22116382 0.00000000)
		(0.82122905 0.22781477 0.00000000)
		(0.83798883 0.23363001 0.00000000)
		(0.85474860 0.23858818 0.00000000)
		(0.87150838 0.24267110 0.00000000)
		(0.88826816 0.24586380 0.00000000)
		(0.90502793 0.24815455 0.00000000)
		(0.92178771 0.24953497 0.00000000)
		(0.93854749 0.24999998 0.00000000)
		(0.95530726 0.24954787 0.00000000)
		(0.97206704 0.24818031 0.00000000)
		(0.98882682 0.24590232 0.00000000)
		(1.00558659 0.24272224 0.00000000)
		(1.02234637 0.23865175 0.00000000)
		(1.03910615 0.23370578 0.00000000)
		(1.05586592 0.22790247 0.00000000)
		(1.07262570 0.22126311 0.00000000)
		(1.08938547 0.21381206 0.00000000)
		(1.10614525 0.20557665 0.00000000)
		(1.12290503 0.19658709 0.00000000)
		(1.13966480 0.18687637 0.00000000)
		(1.15642458 0.17648009 0.00000000)
		(1.17318436 0.16543641 0.00000000)
		(1.18994413 0.15378583 0.00000000)
		(1.20670391 0.14157110 0.00000000)
		(1.22346369 0.12883702 0.00000000)
		(1.24022346 0.11563031 0.00000000)
		(1.25698324 0.10199941 0.00000000)
		(1.27374302 0.08799433 0.00000000)
		(1.29050279 0.07366646 0.00000000)
		(1.30726257 0.05906834 0.00000000)
		(1.32402235 0.04425353 0.00000000)
		(1.34078212 0.02927637 0.00000000)
		(1.35754190 0.01419182 0.00000000)
		(1.37430168 -0.00094479 0.00000000)
		(1.39106145 -0.01607793 0.00000000)
		(1.40782123 -0.03115210 0.00000000)
		(1.42458101 -0.04611199 0.00000000)
		(1.44134078 -0.06090271 0.00000000)
		(1.45810056 -0.07547002 0.00000000)
		(1.47486034 -0.08976047 0.00000000)
		(1.49162011 -0.10372164 0.00000000)
		(1.50837989 -0.11730231 0.00000000)
		(1.52513966 -0.13045266 0.00000000)
		(1.54189944 -0.14312445 0.00000000)
		(1.55865922 -0.15527120 0.00000000)
		(1.57541899 -0.16684834 0.00000000)
		(1.59217877 -0.17781341 0.00000000)
		(1.60893855 -0.18812618 0.00000000)
		(1.62569832 -0.19774882 0.00000000)
		(1.64245810 -0.20664603 0.00000000)
		(1.65921788 -0.21478516 0.00000000)
		(1.67597765 -0.22213637 0.00000000)
		(1.69273743 -0.22867268 0.00000000)
		(1.70949721 -0.23437012 0.00000000)
		(1.72625698 -0.23920778 0.00000000)
		(1.74301676 -0.24316792 0.00000000)
		(1.75977654 -0.24623601 0.00000000)
		(1.77653631 -0.24840079 0.00000000)
		(1.79329609 -0.24965433 0.00000000)
		(1.81005587 -0.24999203 0.00000000)
		(1.82681564 -0.24941264 0.00000000)
		(1.84357542 -0.24791830 0.00000000)
		(1.86033520 -0.24551448 0.00000000)
		(1.87709497 -0.24221000 0.00000000)
		(1.89385475 -0.23801698 0.00000000)
		(1.91061453 -0.23295082 0.00000000)
		(1.92737430 -0.22703008 0.00000000)
		(1.94413408 -0.22027650 0.00000000)
		(1.96089385 -0.21271484 0.00000000)
		(1.97765363 -0.20437285 0.00000000)
		(1.99441341 -0.19528113 0.00000000)
		(2.01117318 -0.18547302 0.00000000)
		(2.02793296 -0.17498452 0.00000000)
		(2.04469274 -0.16385410 0.00000000)
		(2.06145251 -0.15212259 0.00000000)
		(2.07821229 -0.13983302 0.00000000)
		(2.09497207 -0.12703049 0.00000000)
		(2.11173184 -0.11376194 0.00000000)
		(2.12849162 -0.10007607 0.00000000)
		(2.14525140 -0.08602307 0.00000000)
		(2.16201117 -0.07165451 0.00000000)
		(2.17877095 -0.05702308 0.00000000)
		(2.19553073 -0.04218246 0.00000000)
		(2.21229050 -0.02718710 0.00000000)
		(2.22905028 -0.01209201 0.00000000)
		(2.24581006 0.00304744 0.00000000)
		(2.26256983 0.01817572 0.00000000)
		(2.27932961 0.03323731 0.00000000)
		(2.29608939 0.04817698 0.00000000)
		(2.31284916 0.06293991 0.00000000)
		(2.32960894 0.07747195 0.00000000)
		(2.34636872 0.09171979 0.00000000)
		(2.36312849 0.10563116 0.00000000)
		(2.37988827 0.11915503 0.00000000)
		(2.39664804 0.13224178 0.00000000)
		(2.41340782 0.14484341 0.00000000)
		(2.43016760 0.15691369 0.00000000)
		(2.44692737 0.16840834 0.00000000)
		(2.46368715 0.17928519 0.00000000)
		(2.48044693 0.18950434 0.00000000)
		(2.49720670 0.19902831 0.00000000)
		(2.51396648 0.20782215 0.00000000)
		(2.53072626 0.21585360 0.00000000)
		(2.54748603 0.22309321 0.00000000)
		(2.56424581 0.22951441 0.00000000)
		(2.58100559 0.23509365 0.00000000)
		(2.59776536 0.23981046 0.00000000)
		(2.61452514 0.24364753 0.00000000)
		(2.63128492 0.24659080 0.00000000)
		(2.64804469 0.24862946 0.00000000)
		(2.66480447 0.24975604 0.00000000)
		(2.68156425 0.24996640 0.00000000)
		(2.69832402 0.24925977 0.00000000)
		(2.71508380 0.24763874 0.00000000)
		(2.73184358 0.24510927 0.00000000)
		(2.74860335 0.24168062 0.00000000)
		(2.76536313 0.23736538 0.00000000)
		(2.78212291 0.23217937 0.00000000)
		(2.79888268 0.22614163 0.00000000)
		(2.81564246 0.21927430 0.00000000)
		(2.83240223 0.21160257 0.00000000)
		(2.84916201 0.20315459 0.00000000)
		(2.86592179 0.19396134 0.00000000)
		(2.88268156 0.18405656 0.00000000)
		(2.89944134 0.17347658 0.00000000)
		(2.91620112 0.16226020 0.00000000)
		(2.93296089 0.15044859 0.00000000)
		(2.95166480 0.14051103 0.00000000)
		(2.97036872 0.13161953 0.00000000)
		(2.98907263 0.12377409 0.00000000)
		(3.00777654 0.11697471 0.00000000)
		(3.02648045 0.11122139 0.00000000)
		(3.04518436 0.10651412 0.00000000)
		(3.06388827 0.10285292 0.00000000)
		(3.08259218 0.10023777 0.00000000)
		(3.10129609 0.09866868 0.00000000)
		(3.12000000 0.09814565 0.00000000)
		(3.14000000 0.09814565 0.00000000)
		(3.16000000 0.09814565 0.00000000)
		(3.18000000 0.09814565 0.00000000)
		(3.20000000 0.09814565 0.00000000)
		(3.22000000 0.09814565 0.00000000)
		(3.24000000 0.09814565 0.00000000)
		(3.26000000 0.09814565 0.00000000)
		(3.28000000 0.09814565 0.00000000)
		(3.30000000 0.09814565 0.00000000)
		(3.32000000 0.09814565 0.00000000)
		(3.34000000 0.09814565 0.00000000)
		(3.36000000 0.09814565 0.00000000)
		(3.38000000 0.09814565 0.00000000)
		(3.40000000 0.09814565 0.00000000)
		(3.42000000 0.09814565 0.00000000)
		(3.44000000 0.09814565 0.00000000)
		(3.46000000 0.09814565 0.00000000)
		(3.48000000 0.09814565 0.00000000)
		(3.50000000 0.09814565 0.00000000)
		(3.52000000 0.09814565 0.00000000)
		(3.54000000 0.09814565 0.00000000)
		(3.56000000 0.09814565 0.00000000)
		(3.58000000 0.09814565 0.00000000)
		(3.60000000 0.09814565 0.00000000)
		(3.62000000 0.09814565 0.00000000)
		(3.64000000 0.09814565 0.00000000)
		(3.66000000 0.09814565 0.00000000)
		(3.68000000 0.09814565 0.00000000)
		(3.70000000 0.09814565 0.00000000)
		(3.72000000 0.09814565 0.00000000)
		(3.74000000 0.09814565 0.00000000)
		(3.76000000 0.09814565 0.00000000)
		(3.78000000 0.09814565 0.00000000)
		(3.80000000 0.09814565 0.00000000)
		(3.82000000 0.09814565 0.00000000)
		(3.84000000 0.09814565 0.00000000)
		(3.86000000 0.09814565 0.00000000)
		(3.88000000 0.09814565 0.00000000)
		(3.90000000 0.09814565 0.00000000)
		(3.92000000 0.09814565 0.00000000)
		(3.94000000 0.09814565 0.00000000)
		(3.96000000 0.09814565 0.00000000)
		(3.98000000 0.09814565 0.00000000)
		(4.00000000 0.09814565 0.00000000)
	)
	polyLine 4 5
	(
		(-1.00000000 -0.24215712 0.10000000)
		(-0.98000000 -0.24215712 0.10000000)
		(-0.96000000 -0.24215712 0.10000000)
		(-0.94000000 -0.24215712 0.10000000)
		(-0.92000000 -0.24215712 0.10000000)
		(-0.90000000 -0.24215712 0.10000000)
		(-0.88000000 -0.24215712 0.10000000)
		(-0.86000000 -0.24215712 0.10000000)
		(-0.84000000 -0.24215712 0.10000000)
		(-0.82000000 -0.24215712 0.10000000)
		(-0.80000000 -0.24215712 0.10000000)
		(-0.78000000 -0.24215712 0.10000000)
		(-0.76000000 -0.24215712 0.10000000)
		(-0.74000000 -0.24215712 0.10000000)
		(-0.72000000 -0.24215712 0.10000000)
		(-0.70000000 -0.24215712 0.10000000)
		(-0.68000000 -0.24215712 0.10000000)
		(-0.66000000 -0.24215712 0.10000000)
		(-0.64000000 -0.24215712 0.10000000)
		(-0.62000000 -0.24215712 0.10000000)
		(-0.60000000 -0.24215712 0.10000000)
		(-0.58000000 -0.24215712 0.10000000)
		(-0.56000000 -0.24215712 0.10000000)
		(-0.54000000 -0.24215712 0.10000000)
		(-0.52000000 -0.24215712 0.10000000)
		(-0.50000000 -0.24215712 0.10000000)
		(-0.48000000 -0.24215712 0.10000000)
		(-0.46000000 -0.24215712 0.10000000)
		(-0.44000000 -0.24215712 0.10000000)
		(-0.42000000 -0.24215712 0.10000000)
		(-0.40000000 -0.24215712 0.10000000)
		(-0.38000000 -0.24215712 0.10000000)
		(-0.36000000 -0.24215712 0.10000000)
		(-0.34000000 -0.24215712 0.10000000)
		(-0.32000000 -0.24215712 0.10000000)
		(-0.30000000 -0.24215712 0.10000000)
		(-0.28000000 -0.24215712 0.10000000)
		(-0.26000000 -0.24215712 0.10000000)
		(-0.24000000 -0.24215712 0.10000000)
		(-0.22000000 -0.24215712 0.10000000)
		(-0.20000000 -0.24215712 0.10000000)
		(-0.18000000 -0.24215712 0.10000000)
		(-0.16000000 -0.24215712 0.10000000)
		(-0.14000000 -0.24215712 0.10000000)
		(-0.12000000 -0.24215712 0.10000000)
		(-0.10000000 -0.24215712 0.10000000)
		(-0.08162011 -0.24223220 0.10000000)
		(-0.06324022 -0.24245745 0.10000000)
		(-0.04486034 -0.24283287 0.10000000)
		(-0.02648045 -0.24335845 0.10000000)
		(-0.00810056 -0.24403420 0.10000000)
		(0.01027933 -0.24486012 0.10000000)
		(0.02865922 -0.24583620 0.10000000)
		(0.04703911 -0.24696245 0.10000000)
		(0.06541899 -0.24823887 0.10000000)
		(0.08379888 -0.24966545 0.10000000)
		(0.10055866 -0.24842477 0.10000000)
		(0.11731844 -0.24627277 0.10000000)
		(0.13407821 -0.24321732 0.10000000)
		(0.15083799 -0.23926964 0.10000000)
		(0.16759777 -0.23444421 0.10000000)
		(0.18435754 -0.22875874 0.10000000)
		(0.20111732 -0.22223408 0.10000000)
		(0.21787709 -0.21489416 0.10000000)
		(0.23463687 -0.20676591 0.10000000)
		(0.25139665 -0.19787916 0.10000000)
		(0.26815642 -0.18826649 0.10000000)
		(0.28491620 -0.17796318 0.10000000)
		(0.30167598 -0.16700701 0.10000000)
		(0.31843575 -0.15543819 0.10000000)
		(0.33519553 -0.14329916 0.10000000)
		(0.35195531 -0.13063444 0.10000000)
		(0.36871508 -0.11749049 0.10000000)
		(0.38547486 -0.10391553 0.10000000)
		(0.40223464 -0.08995937 0.10000000)
		(0.41899441 -0.07567319 0.10000000)
		(0.43575419 -0.06110941 0.10000000)
		(0.45251397 -0.04632146 0.10000000)
		(0.46927374 -0.03136357 0.10000000)
		(0.48603352 -0.01629063 0.10000000)
		(0.50279330 -0.00115793 0.10000000)
		(0.51955307 0.01397902 0.10000000)
		(0.53631285 0.02906468 0.10000000)
		(0.55307263 0.04404373 0.10000000)
		(0.56983240 0.05886120 0.10000000)
		(0.58659218 0.07346275 0.10000000)
		(0.60335196 0.08779480 0.10000000)
		(0.62011173 0.10180477 0.10000000)
		(0.63687151 0.11544129 0.10000000)
		(0.65363128 0.12865431 0.10000000)
		(0.67039106 0.14139537 0.10000000)
		(0.68715084 0.15361773 0.10000000)
		(0.70391061 0.16527655 0.10000000)
		(0.72067039 0.17632906 0.10000000)
		(0.73743017 0.18673472 0.10000000)
		(0.75418994 0.19645534 0.10000000)
		(0.77094972 0.20545529 0.10000000)
		(0.78770950 0.21370153 0.10000000)
		(0.80446927 0.22116382 0.10000000)
		(0.82122905 0.22781477 0.10000000)
		(0.83798883 0.23363001 0.10000000)
		(0.85474860 0.23858818 0.10000000)
		(0.87150838 0.24267110 0.10000000)
		(0.88826816 0.24586380 0.10000000)
		(0.90502793 0.24815455 0.10000000)
		(0.92178771 0.24953497 0.10000000)
		(0.93854749 0.24999998 0.10000000)
		(0.95530726 0.24954787 0.10000000)
		(0.97206704 0.24818031 0.10000000)
		(0.98882682 0.24590232 0.10000000)
		(1.00558659 0.24272224 0.10000000)
		(1.02234637 0.23865175 0.10000000)
		(1.03910615 0.23370578 0.10000000)
		(1.05586592 0.22790247 0.10000000)
		(1.07262570 0.22126311 0.10000000)
		(1.08938547 0.21381206 0.10000000)
		(1.10614525 0.20557665 0.10000000)
		(1.12290503 0.19658709 0.10000000)
		(1.13966480 0.18687637 0.10000000)
		(1.15642458 0.17648009 0.10000000)
		(1.17318436 0.16543641 0.10000000)
		(1.18994413 0.15378583 0.10000000)
		(1.20670391 0.14157110 0.10000000)
		(1.22346369 0.12883702 0.10000000)
		(1.24022346 0.11563031 0.10000000)
		(1.25698324 0.10199941 0.10000000)
		(1.27374302 0.08799433 0.10000000)
		(1.29050279 0.07366646 0.10000000)
		(1.30726257 0.05906834 0.10000000)
		(1.32402235 0.04425353 0.10000000)
		(1.34078212 0.02927637 0.10000000)
		(1.35754190 0.01419182 0.10000000)
		(1.37430168 -0.00094479 0.10000000)
		(1.39106145 -0.01607793 0.10000000)
		(1.40782123 -0.03115210 0.10000000)
		(1.42458101 -0.04611199 0.10000000)
		(1.44134078 -0.06090271 0.10000000)
		(1.45810056 -0.07547002 0.10000000)
		(1.47486034 -0.08976047 0.10000000)
		(1.49162011 -0.10372164 0.10000000)
		(1.50837989 -0.11730231 0.10000000)
		(1.52513966 -0.13045266 0.10000000)
		(1.54189944 -0.14312445 0.10000000)
		(1.55865922 -0.15527120 0.10000000)
		(1.57541899 -0.16684834 0.10000000)
		(1.59217877 -0.17781341 0.10000000)
		(1.60893855 -0.18812618 0.10000000)
		(1.62569832 -0.19774882 0.10000000)
		(1.64245810 -0.20664603 0.10000000)
		(1.65921788 -0.21478516 0.10000000)
		(1.67597765 -0.22213637 0.10000000)
		(1.69273743 -0.22867268 0.10000000)
		(1.70949721 -0.23437012 0.10000000)
		(1.72625698 -0.23920778 0.10000000)
		(1.74301676 -0.24316792 0.10000000)
		(1.75977654 -0.24623601 0.10000000)
		(1.77653631 -0.24840079 0.10000000)
		(1.79329609 -0.24965433 0.10000000)
		(1.81005587 -0.24999203 0.10000000)
		(1.82681564 -0.24941264 0.10000000)
		(1.84357542 -0.24791830 0.10000000)
		(1.86033520 -0.24551448 0.10000000)
		(1.87709497 -0.24221000 0.10000000)
		(1.89385475 -0.23801698 0.10000000)
		(1.91061453 -0.23295082 0.10000000)
		(1.92737430 -0.22703008 0.10000000)
		(1.94413408 -0.22027650 0.10000000)
		(1.96089385 -0.21271484 0.10000000)
		(1.97765363 -0.20437285 0.10000000)
		(1.99441341 -0.19528113 0.10000000)
		(2.01117318 -0.18547302 0.10000000)
		(2.02793296 -0.17498452 0.10000000)
		(2.04469274 -0.16385410 0.10000000)
		(2.06145251 -0.15212259 0.10000000)
		(2.07821229 -0.13983302 0.10000000)
		(2.09497207 -0.12703049 0.10000000)
		(2.11173184 -0.11376194 0.10000000)
		(2.12849162 -0.10007607 0.10000000)
		(2.14525140 -0.08602307 0.10000000)
		(2.16201117 -0.07165451 0.10000000)
		(2.17877095 -0.05702308 0.10000000)
		(2.19553073 -0.04218246 0.10000000)
		(2.21229050 -0.02718710 0.10000000)
		(2.22905028 -0.01209201 0.10000000)
		(2.24581006 0.00304744 0.10000000)
		(2.26256983 0.01817572 0.10000000)
		(2.27932961 0.03323731 0.10000000)
		(2.29608939 0.04817698 0.10000000)
		(2.31284916 0.06293991 0.10000000)
		(2.32960894 0.07747195 0.10000000)
		(2.34636872 0.09171979 0.10000000)
		(2.36312849 0.10563116 0.10000000)
		(2.37988827 0.11915503 0.10000000)
		(2.39664804 0.13224178 0.10000000)
		(2.41340782 0.14484341 0.10000000)
		(2.43016760 0.15691369 0.10000000)
		(2.44692737 0.16840834 0.10000000)
		(2.46368715 0.17928519 0.10000000)
		(2.48044693 0.18950434 0.10000000)
		(2.49720670 0.19902831 0.10000000)
		(2.51396648 0.20782215 0.10000000)
		(2.53072626 0.21585360 0.10000000)
		(2.54748603 0.22309321 0.10000000)
		(2.56424581 0.22951441 0.10000000)
		(2.58100559 0.23509365 0.10000000)
		(2.59776536 0.23981046 0.10000000)
		(2.61452514 0.24364753 0.10000000)
		(2.63128492 0.24659080 0.10000000)
		(2.64804469 0.24862946 0.10000000)
		(2.66480447 0.24975604 0.10000000)
		(2.68156425 0.24996640 0.10000000)
		(2.69832402 0.24925977 0.10000000)
		(2.71508380 0.24763874 0.10000000)
		(2.73184358 0.24510927 0.10000000)
		(2.74860335 0.24168062 0.10000000)
		(2.76536313 0.23736538 0.10000000)
		(2.78212291 0.23217937 0.10000000)
		(2.79888268 0.22614163 0.10000000)
		(2.81564246 0.21927430 0.10000000)
		(2.83240223 0.21160257 0.10000000)
		(2.84916201 0.20315459 0.10000000)
		(2.86592179 0.19396134 0.10000000)
		(2.88268156 0.18405656 0.10000000)
		(2.89944134 0.17347658 0.10000000)
		(2.91620112 0.16226020 0.10000000)
		(2.93296089 0.15044859 0.10000000)
		(2.95166480 0.14051103 0.10000000)
		(2.97036872 0.13161953 0.10000000)
		(2.98907263 0.12377409 0.10000000)
		(3.00777654 0.11697471 0.10000000)
		(3.02648045 0.11122139 0.10000000)
		(3.04518436 0.10651412 0.10000000)
		(3.06388827 0.10285292 0.10000000)
		(3.08259218 0.10023777 0.10000000)
		(3.10129609 0.09866868 0.10000000)
		(3.12000000 0.09814565 0.10000000)
		(3.14000000 0.09814565 0.10000000)
		(3.16000000 0.09814565 0.10000000)
		(3.18000000 0.09814565 0.10000000)
		(3.20000000 0.09814565 0.10000000)
		(3.22000000 0.09814565 0.10000000)
		(3.24000000 0.09814565 0.10000000)
		(3.26000000 0.09814565 0.10000000)
		(3.28000000 0.09814565 0.10000000)
		(3.30000000 0.09814565 0.10000000)
		(3.32000000 0.09814565 0.10000000)
		(3.34000000 0.09814565 0.10000000)
		(3.36000000 0.09814565 0.10000000)
		(3.38000000 0.09814565 0.10000000)
		(3.40000000 0.09814565 0.10000000)
		(3.42000000 0.09814565 0.10000000)
		(3.44000000 0.09814565 0.10000000)
		(3.46000000 0.09814565 0.10000000)
		(3.48000000 0.09814565 0.10000000)
		(3.50000000 0.09814565 0.10000000)
		(3.52000000 0.09814565 0.10000000)
		(3.54000000 0.09814565 0.10000000)
		(3.56000000 0.09814565 0.10000000)
		(3.58000000 0.09814565 0.10000000)
		(3.60000000 0.09814565 0.10000000)
		(3.62000000 0.09814565 0.10000000)
		(3.64000000 0.09814565 0.10000000)
		(3.66000000 0.09814565 0.10000000)
		(3.68000000 0.09814565 0.10000000)
		(3.70000000 0.09814565 0.10000000)
		(3.72000000 0.09814565 0.10000000)
		(3.74000000 0.09814565 0.10000000)
		(3.76000000 0.09814565 0.10000000)
		(3.78000000 0.09814565 0.10000000)
		(3.80000000 0.09814565 0.10000000)
		(3.82000000 0.09814565 0.10000000)
		(3.84000000 0.09814565 0.10000000)
		(3.86000000 0.09814565 0.10000000)
		(3.88000000 0.09814565 0.10000000)
		(3.90000000 0.09814565 0.10000000)
		(3.92000000 0.09814565 0.10000000)
		(3.94000000 0.09814565 0.10000000)
		(3.96000000 0.09814565 0.10000000)
		(3.98000000 0.09814565 0.10000000)
		(4.00000000 0.09814565 0.10000000)
	)
	polyLine 3 2
	(
		(-1.00000000 0.25784288 0.00000000)
		(-0.98000000 0.25977230 0.00000000)
		(-0.96000000 0.26170171 0.00000000)
		(-0.94000000 0.26363113 0.00000000)
		(-0.92000000 0.26556055 0.00000000)
		(-0.90000000 0.26748996 0.00000000)
		(-0.88000000 0.26941938 0.00000000)
		(-0.86000000 0.27134879 0.00000000)
		(-0.84000000 0.27327821 0.00000000)
		(-0.82000000 0.27520762 0.00000000)
		(-0.80000000 0.27713704 0.00000000)
		(-0.78000000 0.27906645 0.00000000)
		(-0.76000000 0.28099587 0.00000000)
		(-0.74000000 0.28292529 0.00000000)
		(-0.72000000 0.28485470 0.00000000)
		(-0.70000000 0.28678412 0.00000000)
		(-0.68000000 0.28871353 0.00000000)
		(-0.66000000 0.29064295 0.00000000)
		(-0.64000000 0.29257236 0.00000000)
		(-0.62000000 0.29450178 0.00000000)
		(-0.60000000 0.29643119 0.00000000)
		(-0.58000000 0.29836061 0.00000000)
		(-0.56000000 0.30029002 0.00000000)
		(-0.54000000 0.30221944 0.00000000)
		(-0.52000000 0.30414886 0.00000000)
		(-0.50000000 0.30607827 0.00000000)
		(-0.48000000 0.30800769 0.00000000)
		(-0.46000000 0.30993710 0.00000000)
		(-0.44000000 0.31186652 0.00000000)
		(-0.42000000 0.31379593 0.00000000)
		(-0.40000000 0.31572535 0.00000000)
		(-0.38000000 0.31765476 0.00000000)
		(-0.36000000 0.31958418 0.00000000)
		(-0.34000000 0.32151360 0.00000000)
		(-0.32000000 0.32344301 0.00000000)
		(-0.30000000 0.32537243 0.00000000)
		(-0.28000000 0.32730184 0.00000000)
		(-0.26000000 0.32923126 0.00000000)
		(-0.24000000 0.33116067 0.00000000)
		(-0.22000000 0.33309009 0.00000000)
		(-0.20000000 0.33501950 0.00000000)
		(-0.18000000 0.33694892 0.00000000)
		(-0.16000000 0.33887834 0.00000000)
		(-0.14000000 0.34080775 0.00000000)
		(-0.12000000 0.34273717 0.00000000)
		(-0.10000000 0.34466658 0.00000000)
		(-0.08162011 0.34604561 0.00000000)
		(-0.06324022 0.34718798 0.00000000)
		(-0.04486034 0.34809370 0.00000000)
		(-0.02648045 0.34876275 0.00000000)
		(-0.00810056 0.34919515 0.00000000)
		(0.01027933 0.34939089 0.00000000)
		(0.02865922 0.34934997 0.00000000)
		(0.04703911 0.34907239 0.00000000)
		(0.06541899 0.34855816 0.00000000)
		(0.08379888 0.34780726 0.00000000)
		(0.10055866 0.34856356 0.00000000)
		(0.11731844 0.34987540 0.00000000)
		(0.13407821 0.35173796 0.00000000)
		(0.15083799 0.35414441 0.00000000)
		(0.16759777 0.35708593 0.00000000)
		(0.18435754 0.36055172 0.00000000)
		(0.20111732 0.36452906 0.00000000)
		(0.21787709 0.36900338 0.00000000)
		(0.23463687 0.37395825 0.00000000)
		(0.25139665 0.37937550 0.00000000)
		(0.26815642 0.38523525 0.00000000)
		(0.28491620 0.39151602 0.00000000)
		(0.30167598 0.39819475 0.00000000)
		(0.31843575 0.40524695 0.00000000)
		(0.33519553 0.41264674 0.00000000)
		(0.35195531 0.42036699 0.00000000)
		(0.36871508 0.42837936 0.00000000)
		(0.38547486 0.43665447 0.00000000)
		(0.40223464 0.44516197 0.00000000)
		(0.41899441 0.45387063 0.00000000)
		(0.43575419 0.46274851 0.00000000)
		(0.45251397 0.47176306 0.00000000)
		(0.46927374 0.48088118 0.00000000)
		(0.48603352 0.49006945 0.00000000)
		(0.50279330 0.49929414 0.00000000)
		(0.51955307 0.50852142 0.00000000)
		(0.53631285 0.51771744 0.00000000)
		(0.55307263 0.52684847 0.00000000)
		(0.56983240 0.53588101 0.00000000)
		(0.58659218 0.54478191 0.00000000)
		(0.60335196 0.55351854 0.00000000)
		(0.62011173 0.56205884 0.00000000)
		(0.63687151 0.57037147 0.00000000)
		(0.65363128 0.57842595 0.00000000)
		(0.67039106 0.58619274 0.00000000)
		(0.68715084 0.59364332 0.00000000)
		(0.70391061 0.60075038 0.00000000)
		(0.72067039 0.60748785 0.00000000)
		(0.73743017 0.61383100 0.00000000)
		(0.75418994 0.61975656 0.00000000)
		(0.77094972 0.62524281 0.00000000)
		(0.78770950 0.63026961 0.00000000)
		(0.80446927 0.63481852 0.00000000)
		(0.82122905 0.63887285 0.00000000)
		(0.83798883 0.64241774 0.00000000)
		(0.85474860 0.64544018 0.00000000)
		(0.87150838 0.64792907 0.00000000)
		(0.88826816 0.64987530 0.00000000)
		(0.90502793 0.65127171 0.00000000)
		(0.92178771 0.65211320 0.00000000)
		(0.93854749 0.65239666 0.00000000)
		(0.95530726 0.65212106 0.00000000)
		(0.97206704 0.65128742 0.00000000)
		(0.98882682 0.64989878 0.00000000)
		(1.00558659 0.64796025 0.00000000)
		(1.02234637 0.64547893 0.00000000)
		(1.03910615 0.64246393 0.00000000)
		(1.05586592 0.63892631 0.00000000)
		(1.07262570 0.63487905 0.00000000)
		(1.08938547 0.63033699 0.00000000)
		(1.10614525 0.62531679 0.00000000)
		(1.12290503 0.61983688 0.00000000)
		(1.13966480 0.61391735 0.00000000)
		(1.15642458 0.60757992 0.00000000)
		(1.17318436 0.60084783 0.00000000)
		(1.18994413 0.59374580 0.00000000)
		(1.20670391 0.58629986 0.00000000)
		(1.22346369 0.57853733 0.00000000)
		(1.24022346 0.57048670 0.00000000)
		(1.25698324 0.56217748 0.00000000)
		(1.27374302 0.55364018 0.00000000)
		(1.29050279 0.54490609 0.00000000)
		(1.30726257 0.53600727 0.00000000)
		(1.32402235 0.52697636 0.00000000)
		(1.34078212 0.51784649 0.00000000)
		(1.35754190 0.50865115 0.00000000)
		(1.37430168 0.49942407 0.00000000)
		(1.39106145 0.49019910 0.00000000)
		(1.40782123 0.48101009 0.00000000)
		(1.42458101 0.47189075 0.00000000)
		(1.44134078 0.46287452 0.00000000)
		(1.45810056 0.45399448 0.00000000)
		(1.47486034 0.44528321 0.00000000)
		(1.49162011 0.43677267 0.00000000)
		(1.50837989 0.42849408 0.00000000)
		(1.52513966 0.42047780 0.00000000)
		(1.54189944 0.41275324 0.00000000)
		(1.55865922 0.40534874 0.00000000)
		(1.57541899 0.39829147 0.00000000)
		(1.59217877 0.39160731 0.00000000)
		(1.60893855 0.38532078 0.00000000)
		(1.62569832 0.37945495 0.00000000)
		(1.64245810 0.37403133 0.00000000)
		(1.65921788 0.36906982 0.00000000)
		(1.67597765 0.36458863 0.00000000)
		(1.69273743 0.36060418 0.00000000)
		(1.70949721 0.35713110 0.00000000)
		(1.72625698 0.35418212 0.00000000)
		(1.74301676 0.35176807 0.00000000)
		(1.75977654 0.34989781 0.00000000)
		(1.77653631 0.34857818 0.00000000)
		(1.79329609 0.34781404 0.00000000)
		(1.81005587 0.34760818 0.00000000)
		(1.82681564 0.34796137 0.00000000)
		(1.84357542 0.34887230 0.00000000)
		(1.86033520 0.35033764 0.00000000)
		(1.87709497 0.35235201 0.00000000)
		(1.89385475 0.35490801 0.00000000)
		(1.91061453 0.35799628 0.00000000)
		(1.92737430 0.36160548 0.00000000)
		(1.94413408 0.36572238 0.00000000)
		(1.96089385 0.37033186 0.00000000)
		(1.97765363 0.37541703 0.00000000)
		(1.99441341 0.38095922 0.00000000)
		(2.01117318 0.38693811 0.00000000)
		(2.02793296 0.39333176 0.00000000)
		(2.04469274 0.40011672 0.00000000)
		(2.06145251 0.40726809 0.00000000)
		(2.07821229 0.41475965 0.00000000)
		(2.09497207 0.42256391 0.00000000)
		(2.11173184 0.43065223 0.00000000)
		(2.12849162 0.43899496 0.00000000)
		(2.14525140 0.44756148 0.00000000)
		(2.16201117 0.45632037 0.00000000)
		(2.17877095 0.46523949 0.00000000)
		(2.19553073 0.47428613 0.00000000)
		(2.21229050 0.48342710 0.00000000)
		(2.22905028 0.49262887 0.00000000)
		(2.24581006 0.50185768 0.00000000)
		(2.26256983 0.51107967 0.00000000)
		(2.27932961 0.52026102 0.00000000)
		(2.29608939 0.52936805 0.00000000)
		(2.31284916 0.53836733 0.00000000)
		(2.32960894 0.54722587 0.00000000)
		(2.34636872 0.55591116 0.00000000)
		(2.36312849 0.56439135 0.00000000)
		(2.37988827 0.57263532 0.00000000)
		(2.39664804 0.58061283 0.00000000)
		(2.41340782 0.58829461 0.00000000)
		(2.43016760 0.59565250 0.00000000)
		(2.44692737 0.60265948 0.00000000)
		(2.46368715 0.60928986 0.00000000)
		(2.48044693 0.61551932 0.00000000)
		(2.49720670 0.62132501 0.00000000)
		(2.51396648 0.62668561 0.00000000)
		(2.53072626 0.63158148 0.00000000)