/*--------------------------------*- C++ -*----------------------------------*\\
/*--------------------------------*- C++ -*----------------------------------*\\
| =========                 |                                                 |
| \\\\      /  F ield         | OpenFOAM: The Open Source CFD Toolbox           |
|  \\\\    /   O peration     | Version:  v2012                                 |
|   \\\\  /    A nd           | Website:  www.openfoam.com                      |
|    \\\\/     M anipulation  |                                                 |
\\*---------------------------------------------------------------------------*/
FoamFile
{
    version     2.0;
    format      ascii;
    class       dictionary;
    object      blockMeshDict;
}
// * * * * * * * * * * * * * * * * * * * * * * * * * * * * * * * * * * * * * //

scale   0.01;

xmin -1;
xmax 5;
ymin 0;
ymax 0.5;
zmin 0;
zmax 0.1;

vertices
(
    (-1.00000000 0.24943552 0.00000000)
    (4.00000000 -0.02347493 0.00000000)
    (4.00000000 0.47652507 0.00000000)
    (-1.00000000 0.74943552 0.00000000)
    (-1.00000000 0.24943552 0.10000000)
    (4.00000000 -0.02347493 0.10000000)
    (4.00000000 0.47652507 0.10000000)
    (-1.00000000 0.74943552 0.10000000)
);

blocks
(
    hex (0 1 2 3 4 5 6 7) (200 20 1) simpleGrading (1 1 1)
);

edges
(
	polyLine 0 1
	(
		(-1.00000000 0.24943552 0.00000000)
		(-0.98000000 0.24943552 0.00000000)
		(-0.96000000 0.24943552 0.00000000)
		(-0.94000000 0.24943552 0.00000000)
		(-0.92000000 0.24943552 0.00000000)
		(-0.90000000 0.24943552 0.00000000)
		(-0.88000000 0.24943552 0.00000000)
		(-0.86000000 0.24943552 0.00000000)
		(-0.84000000 0.24943552 0.00000000)
		(-0.82000000 0.24943552 0.00000000)
		(-0.80000000 0.24943552 0.00000000)
		(-0.78000000 0.24943552 0.00000000)
		(-0.76000000 0.24943552 0.00000000)
		(-0.74000000 0.24943552 0.00000000)
		(-0.72000000 0.24943552 0.00000000)
		(-0.70000000 0.24943552 0.00000000)
		(-0.68000000 0.24943552 0.00000000)
		(-0.66000000 0.24943552 0.00000000)
		(-0.64000000 0.24943552 0.00000000)
		(-0.62000000 0.24943552 0.00000000)
		(-0.60000000 0.24943552 0.00000000)
		(-0.58000000 0.24943552 0.00000000)
		(-0.56000000 0.24943552 0.00000000)
		(-0.54000000 0.24943552 0.00000000)
		(-0.52000000 0.24943552 0.00000000)
		(-0.50000000 0.24943552 0.00000000)
		(-0.48000000 0.24943552 0.00000000)
		(-0.46000000 0.24943552 0.00000000)
		(-0.44000000 0.24943552 0.00000000)
		(-0.42000000 0.24943552 0.00000000)
		(-0.40000000 0.24943552 0.00000000)
		(-0.38000000 0.24943552 0.00000000)
		(-0.36000000 0.24943552 0.00000000)
		(-0.34000000 0.24943552 0.00000000)
		(-0.32000000 0.24943552 0.00000000)
		(-0.30000000 0.24943552 0.00000000)
		(-0.28000000 0.24943552 0.00000000)
		(-0.26000000 0.24943552 0.00000000)
		(-0.24000000 0.24943552 0.00000000)
		(-0.22000000 0.24943552 0.00000000)
		(-0.20000000 0.24943552 0.00000000)
		(-0.18000000 0.24943552 0.00000000)
		(-0.16000000 0.24943552 0.00000000)
		(-0.14000000 0.24943552 0.00000000)
		(-0.12000000 0.24943552 0.00000000)
		(-0.10000000 0.24943552 0.00000000)
		(-0.08162011 0.24927212 0.00000000)
		(-0.06324022 0.24878192 0.00000000)
		(-0.04486034 0.24796493 0.00000000)
		(-0.02648045 0.24682114 0.00000000)
		(-0.00810056 0.24535055 0.00000000)
		(0.01027933 0.24355316 0.00000000)
		(0.02865922 0.24142897 0.00000000)
		(0.04703911 0.23897799 0.00000000)
		(0.06541899 0.23620021 0.00000000)
		(0.08379888 0.23309563 0.00000000)
		(0.10055866 0.22720241 0.00000000)
		(0.11731844 0.22047708 0.00000000)
		(0.13407821 0.21294428 0.00000000)
		(0.15083799 0.20463159 0.00000000)
		(0.16759777 0.19556947 0.00000000)
		(0.18435754 0.18579109 0.00000000)
		(0.20111732 0.17533227 0.00000000)
		(0.21787709 0.16423132 0.00000000)
		(0.23463687 0.15252888 0.00000000)
		(0.25139665 0.14026783 0.00000000)
		(0.26815642 0.12749306 0.00000000)
		(0.28491620 0.11425136 0.00000000)
		(0.30167598 0.10059122 0.00000000)
		(0.31843575 0.08656268 0.00000000)
		(0.33519553 0.07221712 0.00000000)
		(0.35195531 0.05760707 0.00000000)
		(0.36871508 0.04278604 0.00000000)
		(0.38547486 0.02780830 0.00000000)
		(0.40223464 0.01272873 0.00000000)
		(0.41899441 -0.00239747 0.00000000)
		(0.43575419 -0.01751488 0.00000000)
		(0.45251397 -0.03256815 0.00000000)
		(0.46927374 -0.04750214 0.00000000)
		(0.48603352 -0.06226215 0.00000000)
		(0.50279330 -0.07679414 0.00000000)
		(0.51955307 -0.09104488 0.00000000)
		(0.53631285 -0.10496218 0.00000000)
		(0.55307263 -0.11849506 0.00000000)
		(0.56983240 -0.13159397 0.00000000)
		(0.58659218 -0.14421093 0.00000000)
		(0.60335196 -0.15629974 0.00000000)
		(0.62011173 -0.16781611 0.00000000)
		(0.63687151 -0.17871787 0.00000000)
		(0.65363128 -0.18896510 0.00000000)
		(0.67039106 -0.19852027 0.00000000)
		(0.68715084 -0.20734837 0.00000000)
		(0.70391061 -0.21541708 0.00000000)
		(0.72067039 -0.22269686 0.00000000)
		(0.73743017 -0.22916102 0.00000000)
		(0.75418994 -0.23478591 0.00000000)
		(0.77094972 -0.23955093 0.00000000)
		(0.78770950 -0.24343861 0.00000000)
		(0.80446927 -0.24643472 0.00000000)
		(0.82122905 -0.24852830 0.00000000)
		(0.83798883 -0.24971166 0.00000000)
		(0.85474860 -0.24998049 0.00000000)
		(0.87150838 -0.24933378 0.00000000)
		(0.88826816 -0.24777392 0.00000000)
		(0.90502793 -0.24530662 0.00000000)
		(0.92178771 -0.24194090 0.00000000)
		(0.93854749 -0.23768910 0.00000000)
		(0.95530726 -0.23256679 0.00000000)
		(0.97206704 -0.22659273 0.00000000)
		(0.98882682 -0.21978880 0.00000000)
		(1.00558659 -0.21217991 0.00000000)
		(1.02234637 -0.20379394 0.00000000)
		(1.03910615 -0.19466160 0.00000000)
		(1.05586592 -0.18481632 0.00000000)
		(1.07262570 -0.17429418 0.00000000)
		(1.08938547 -0.16313371 0.00000000)
		(1.10614525 -0.15137577 0.00000000)
		(1.12290503 -0.13906344 0.00000000)
		(1.13966480 -0.12624180 0.00000000)
		(1.15642458 -0.11295782 0.00000000)
		(1.17318436 -0.09926013 0.00000000)
		(1.18994413 -0.08519892 0.00000000)
		(1.20670391 -0.07082568 0.00000000)
		(1.22346369 -0.05619305 0.00000000)
		(1.24022346 -0.04135461 0.00000000)
		(1.25698324 -0.02636472 0.00000000)
		(1.27374302 -0.01127827 0.00000000)
		(1.29050279 0.00384949 0.00000000)
		(1.30726257 0.01896314 0.00000000)
		(1.32402235 0.03400735 0.00000000)
		(1.34078212 0.04892701 0.00000000)
		(1.35754190 0.06366747 0.00000000)
		(1.37430168 0.07817477 0.00000000)
		(1.39106145 0.09239575 0.00000000)
		(1.40782123 0.10627835 0.00000000)
		(1.42458101 0.11977171 0.00000000)
		(1.44134078 0.13282643 0.00000000)
		(1.45810056 0.14539468 0.00000000)
		(1.47486034 0.15743043 0.00000000)
		(1.49162011 0.16888962 0.00000000)
		(1.50837989 0.17973027 0.00000000)
		(1.52513966 0.18991267 0.00000000)
		(1.54189944 0.19939954 0.00000000)
		(1.55865922 0.20815612 0.00000000)
		(1.57541899 0.21615036 0.00000000)
		(1.59217877 0.22335297 0.00000000)
		(1.60893855 0.22973758 0.00000000)
		(1.62569832 0.23528079 0.00000000)
		(1.64245810 0.23996232 0.00000000)
		(1.65921788 0.24376501 0.00000000)
		(1.67597765 0.24667493 0.00000000)
		(1.69273743 0.24868144 0.00000000)
		(1.70949721 0.24977717 0.00000000)
		(1.72625698 0.24995813 0.00000000)
		(1.74301676 0.24922364 0.00000000)
		(1.75977654 0.24757639 0.00000000)
		(1.77653631 0.24502242 0.00000000)
		(1.79329609 0.24157108 0.00000000)
		(1.81005587 0.23723502 0.00000000)
		(1.82681564 0.23203011 0.00000000)
		(1.84357542 0.22597541 0.00000000)
		(1.86033520 0.21909310 0.00000000)
		(1.87709497 0.21140839 0.00000000)
		(1.89385475 0.20294941 0.00000000)
		(1.91061453 0.19374716 0.00000000)
		(1.92737430 0.18383532 0.00000000)
		(1.94413408 0.17325021 0.00000000)
		(1.96089385 0.16203059 0.00000000)
		(1.97765363 0.15021755 0.00000000)
		(1.99441341 0.13785436 0.00000000)
		(2.01117318 0.12498628 0.00000000)
		(2.02793296 0.11166046 0.00000000)
		(2.04469274 0.09792570 0.00000000)
		(2.06145251 0.08383229 0.00000000)
		(2.07821229 0.06943185 0.00000000)
		(2.09497207 0.05477713 0.00000000)
		(2.11173184 0.03992179 0.00000000)
		(2.12849162 0.02492025 0.00000000)
		(2.14525140 0.00982743 0.00000000)
		(2.16201117 -0.00530137 0.00000000)
		(2.17877095 -0.02041076 0.00000000)
		(2.19553073 -0.03544540 0.00000000)
		(2.21229050 -0.05035023 0.00000000)
		(2.22905028 -0.06507065 0.00000000)
		(2.24581006 -0.07955275 0.00000000)
		(2.26256983 -0.09374351 0.00000000)
		(2.27932961 -0.10759094 0.00000000)
		(2.29608939 -0.12104432 0.00000000)
		(2.31284916 -0.13405440 0.00000000)
		(2.32960894 -0.14657351 0.00000000)
		(2.34636872 -0.15855582 0.00000000)
		(2.36312849 -0.16995743 0.00000000)
		(2.37988827 -0.18073659 0.00000000)
		(2.39664804 -0.19085383 0.00000000)
		(2.41340782 -0.20027208 0.00000000)
		(2.43016760 -0.20895685 0.00000000)
		(2.44692737 -0.21687635 0.00000000)
		(2.46368715 -0.22400156 0.00000000)
		(2.48044693 -0.23030638 0.00000000)
		(2.49720670 -0.23576774 0.00000000)
		(2.51396648 -0.24036562 0.00000000)
		(2.53072626 -0.24408318 0.00000000)
		(2.54748603 -0.24690682 0.00000000)
		(2.56424581 -0.24882619 0.00000000)
		(2.58100559 -0.24983426 0.00000000)
		(2.59776536 -0.24992733 0.00000000)
		(2.61452514 -0.24910508 0.00000000)
		(2.63128492 -0.24737050 0.00000000)
		(2.64804469 -0.24472996 0.00000000)
		(2.66480447 -0.24119312 0.00000000)
		(2.68156425 -0.23677294 0.00000000)
		(2.69832402 -0.23148560 0.00000000)
		(2.71508380 -0.22535046 0.00000000)
		(2.73184358 -0.21839001 0.00000000)
		(2.74860335 -0.21062973 0.00000000)
		(2.76536313 -0.20209804 0.00000000)
		(2.78212291 -0.19282618 0.00000000)
		(2.79888268 -0.18284812 0.00000000)
		(2.81564246 -0.17220040 0.00000000)
		(2.83240223 -0.16092201 0.00000000)
		(2.84916201 -0.14905427 0.00000000)
		(2.86592179 -0.13664063 0.00000000)
		(2.88268156 -0.12372655 0.00000000)
		(2.89944134 -0.11035934 0.00000000)
		(2.91620112 -0.09658796 0.00000000)
		(2.93296089 -0.08246282 0.00000000)
		(2.95166480 -0.07125513 0.00000000)
		(2.97036872 -0.06122718 0.00000000)
		(2.98907263 -0.05237900 0.00000000)
		(3.00777654 -0.04471057 0.00000000)
		(3.02648045 -0.03822191 0.00000000)
		(3.04518436 -0.03291300 0.00000000)
		(3.06388827 -0.02878384 0.00000000)
		(3.08259218 -0.02583445 0.00000000)
		(3.10129609 -0.02406481 0.00000000)
		(3.12000000 -0.02347493 0.00000000)
		(3.14000000 -0.02347493 0.00000000)
		(3.16000000 -0.02347493 0.00000000)
		(3.18000000 -0.02347493 0.00000000)
		(3.20000000 -0.02347493 0.00000000)
		(3.22000000 -0.02347493 0.00000000)
		(3.24000000 -0.02347493 0.00000000)
		(3.26000000 -0.02347493 0.00000000)
		(3.28000000 -0.02347493 0.00000000)
		(3.30000000 -0.02347493 0.00000000)
		(3.32000000 -0.02347493 0.00000000)
		(3.34000000 -0.02347493 0.00000000)
		(3.36000000 -0.02347493 0.00000000)
		(3.38000000 -0.02347493 0.00000000)
		(3.40000000 -0.02347493 0.00000000)
		(3.42000000 -0.02347493 0.00000000)
		(3.44000000 -0.02347493 0.00000000)
		(3.46000000 -0.02347493 0.00000000)
		(3.48000000 -0.02347493 0.00000000)
		(3.50000000 -0.02347493 0.00000000)
		(3.52000000 -0.02347493 0.00000000)
		(3.54000000 -0.02347493 0.00000000)
		(3.56000000 -0.02347493 0.00000000)
		(3.58000000 -0.02347493 0.00000000)
		(3.60000000 -0.02347493 0.00000000)
		(3.62000000 -0.02347493 0.00000000)
		(3.64000000 -0.02347493 0.00000000)
		(3.66000000 -0.02347493 0.00000000)
		(3.68000000 -0.02347493 0.00000000)
		(3.70000000 -0.02347493 0.00000000)
		(3.72000000 -0.02347493 0.00000000)
		(3.74000000 -0.02347493 0.00000000)
		(3.76000000 -0.02347493 0.00000000)
		(3.78000000 -0.02347493 0.00000000)
		(3.80000000 -0.02347493 0.00000000)
		(3.82000000 -0.02347493 0.00000000)
		(3.84000000 -0.02347493 0.00000000)
		(3.86000000 -0.02347493 0.00000000)
		(3.88000000 -0.02347493 0.00000000)
		(3.90000000 -0.02347493 0.00000000)
		(3.92000000 -0.02347493 0.00000000)
		(3.94000000 -0.02347493 0.00000000)
		(3.96000000 -0.02347493 0.00000000)
		(3.98000000 -0.02347493 0.00000000)
		(4.00000000 -0.02347493 0.00000000)
	)
	polyLine 4 5
	(
		(-1.00000000 0.24943552 0.10000000)
		(-0.98000000 0.24943552 0.10000000)
		(-0.96000000 0.24943552 0.10000000)
		(-0.94000000 0.24943552 0.10000000)
		(-0.92000000 0.24943552 0.10000000)
		(-0.90000000 0.24943552 0.10000000)
		(-0.88000000 0.24943552 0.10000000)
		(-0.86000000 0.24943552 0.10000000)
		(-0.84000000 0.24943552 0.10000000)
		(-0.82000000 0.24943552 0.10000000)
		(-0.80000000 0.24943552 0.10000000)
		(-0.78000000 0.24943552 0.10000000)
		(-0.76000000 0.24943552 0.10000000)
		(-0.74000000 0.24943552 0.10000000)
		(-0.72000000 0.24943552 0.10000000)
		(-0.70000000 0.24943552 0.10000000)
		(-0.68000000 0.24943552 0.10000000)
		(-0.66000000 0.24943552 0.10000000)
		(-0.64000000 0.24943552 0.10000000)
		(-0.62000000 0.24943552 0.10000000)
		(-0.60000000 0.24943552 0.10000000)
		(-0.58000000 0.24943552 0.10000000)
		(-0.56000000 0.24943552 0.10000000)
		(-0.54000000 0.24943552 0.10000000)
		(-0.52000000 0.24943552 0.10000000)
		(-0.50000000 0.24943552 0.10000000)
		(-0.48000000 0.24943552 0.10000000)
		(-0.46000000 0.24943552 0.10000000)
		(-0.44000000 0.24943552 0.10000000)
		(-0.42000000 0.24943552 0.10000000)
		(-0.40000000 0.24943552 0.10000000)
		(-0.38000000 0.24943552 0.10000000)
		(-0.36000000 0.24943552 0.10000000)
		(-0.34000000 0.24943552 0.10000000)
		(-0.32000000 0.24943552 0.10000000)
		(-0.30000000 0.24943552 0.10000000)
		(-0.28000000 0.24943552 0.10000000)
		(-0.26000000 0.24943552 0.10000000)
		(-0.24000000 0.24943552 0.10000000)
		(-0.22000000 0.24943552 0.10000000)
		(-0.20000000 0.24943552 0.10000000)
		(-0.18000000 0.24943552 0.10000000)
		(-0.16000000 0.24943552 0.10000000)
		(-0.14000000 0.24943552 0.10000000)
		(-0.12000000 0.24943552 0.10000000)
		(-0.10000000 0.24943552 0.10000000)
		(-0.08162011 0.24927212 0.10000000)
		(-0.06324022 0.24878192 0.10000000)
		(-0.04486034 0.24796493 0.10000000)
		(-0.02648045 0.24682114 0.10000000)
		(-0.00810056 0.24535055 0.10000000)
		(0.01027933 0.24355316 0.10000000)
		(0.02865922 0.24142897 0.10000000)
		(0.04703911 0.23897799 0.10000000)
		(0.06541899 0.23620021 0.10000000)
		(0.08379888 0.23309563 0.10000000)
		(0.10055866 0.22720241 0.10000000)
		(0.11731844 0.22047708 0.10000000)
		(0.13407821 0.21294428 0.10000000)
		(0.15083799 0.20463159 0.10000000)
		(0.16759777 0.19556947 0.10000000)
		(0.18435754 0.18579109 0.10000000)
		(0.20111732 0.17533227 0.10000000)
		(0.21787709 0.16423132 0.10000000)
		(0.23463687 0.15252888 0.10000000)
		(0.25139665 0.14026783 0.10000000)
		(0.26815642 0.12749306 0.10000000)
		(0.28491620 0.11425136 0.10000000)
		(0.30167598 0.10059122 0.10000000)
		(0.31843575 0.08656268 0.10000000)
		(0.33519553 0.07221712 0.10000000)
		(0.35195531 0.05760707 0.10000000)
		(0.36871508 0.04278604 0.10000000)
		(0.38547486 0.02780830 0.10000000)
		(0.40223464 0.01272873 0.10000000)
		(0.41899441 -0.00239747 0.10000000)
		(0.43575419 -0.01751488 0.10000000)
		(0.45251397 -0.03256815 0.10000000)
		(0.46927374 -0.04750214 0.10000000)
		(0.48603352 -0.06226215 0.10000000)
		(0.50279330 -0.07679414 0.10000000)
		(0.51955307 -0.09104488 0.10000000)
		(0.53631285 -0.10496218 0.10000000)
		(0.55307263 -0.11849506 0.10000000)
		(0.56983240 -0.13159397 0.10000000)
		(0.58659218 -0.14421093 0.10000000)
		(0.60335196 -0.15629974 0.10000000)
		(0.62011173 -0.16781611 0.10000000)
		(0.63687151 -0.17871787 0.10000000)
		(0.65363128 -0.18896510 0.10000000)
		(0.67039106 -0.19852027 0.10000000)
		(0.68715084 -0.20734837 0.10000000)
		(0.70391061 -0.21541708 0.10000000)
		(0.72067039 -0.22269686 0.10000000)
		(0.73743017 -0.22916102 0.10000000)
		(0.75418994 -0.23478591 0.10000000)
		(0.77094972 -0.23955093 0.10000000)
		(0.78770950 -0.24343861 0.10000000)
		(0.80446927 -0.24643472 0.10000000)
		(0.82122905 -0.24852830 0.10000000)
		(0.83798883 -0.24971166 0.10000000)
		(0.85474860 -0.24998049 0.10000000)
		(0.87150838 -0.24933378 0.10000000)
		(0.88826816 -0.24777392 0.10000000)
		(0.90502793 -0.24530662 0.10000000)
		(0.92178771 -0.24194090 0.10000000)
		(0.93854749 -0.23768910 0.10000000)
		(0.95530726 -0.23256679 0.10000000)
		(0.97206704 -0.22659273 0.10000000)
		(0.98882682 -0.21978880 0.10000000)
		(1.00558659 -0.21217991 0.10000000)
		(1.02234637 -0.20379394 0.10000000)
		(1.03910615 -0.19466160 0.10000000)
		(1.05586592 -0.18481632 0.10000000)
		(1.07262570 -0.17429418 0.10000000)
		(1.08938547 -0.16313371 0.10000000)
		(1.10614525 -0.15137577 0.10000000)
		(1.12290503 -0.13906344 0.10000000)
		(1.13966480 -0.12624180 0.10000000)
		(1.15642458 -0.11295782 0.10000000)
		(1.17318436 -0.09926013 0.10000000)
		(1.18994413 -0.08519892 0.10000000)
		(1.20670391 -0.07082568 0.10000000)
		(1.22346369 -0.05619305 0.10000000)
		(1.24022346 -0.04135461 0.10000000)
		(1.25698324 -0.02636472 0.10000000)
		(1.27374302 -0.01127827 0.10000000)
		(1.29050279 0.00384949 0.10000000)
		(1.30726257 0.01896314 0.10000000)
		(1.32402235 0.03400735 0.10000000)
		(1.34078212 0.04892701 0.10000000)
		(1.35754190 0.06366747 0.10000000)
		(1.37430168 0.07817477 0.10000000)
		(1.39106145 0.09239575 0.10000000)
		(1.40782123 0.10627835 0.10000000)
		(1.42458101 0.11977171 0.10000000)
		(1.44134078 0.13282643 0.10000000)
		(1.45810056 0.14539468 0.10000000)
		(1.47486034 0.15743043 0.10000000)
		(1.49162011 0.16888962 0.10000000)
		(1.50837989 0.17973027 0.10000000)
		(1.52513966 0.18991267 0.10000000)
		(1.54189944 0.19939954 0.10000000)
		(1.55865922 0.20815612 0.10000000)
		(1.57541899 0.21615036 0.10000000)
		(1.59217877 0.22335297 0.10000000)
		(1.60893855 0.22973758 0.10000000)
		(1.62569832 0.23528079 0.10000000)
		(1.64245810 0.23996232 0.10000000)
		(1.65921788 0.24376501 0.10000000)
		(1.67597765 0.24667493 0.10000000)
		(1.69273743 0.24868144 0.10000000)
		(1.70949721 0.24977717 0.10000000)
		(1.72625698 0.24995813 0.10000000)
		(1.74301676 0.24922364 0.10000000)
		(1.75977654 0.24757639 0.10000000)
		(1.77653631 0.24502242 0.10000000)
		(1.79329609 0.24157108 0.10000000)
		(1.81005587 0.23723502 0.10000000)
		(1.82681564 0.23203011 0.10000000)
		(1.84357542 0.22597541 0.10000000)
		(1.86033520 0.21909310 0.10000000)
		(1.87709497 0.21140839 0.10000000)
		(1.89385475 0.20294941 0.10000000)
		(1.91061453 0.19374716 0.10000000)
		(1.92737430 0.18383532 0.10000000)
		(1.94413408 0.17325021 0.10000000)
		(1.96089385 0.16203059 0.10000000)
		(1.97765363 0.15021755 0.10000000)
		(1.99441341 0.13785436 0.10000000)
		(2.01117318 0.12498628 0.10000000)
		(2.02793296 0.11166046 0.10000000)
		(2.04469274 0.09792570 0.10000000)
		(2.06145251 0.08383229 0.10000000)
		(2.07821229 0.06943185 0.10000000)
		(2.09497207 0.05477713 0.10000000)
		(2.11173184 0.03992179 0.10000000)
		(2.12849162 0.02492025 0.10000000)
		(2.14525140 0.00982743 0.10000000)
		(2.16201117 -0.00530137 0.10000000)
		(2.17877095 -0.02041076 0.10000000)
		(2.19553073 -0.03544540 0.10000000)
		(2.21229050 -0.05035023 0.10000000)
		(2.22905028 -0.06507065 0.10000000)
		(2.24581006 -0.07955275 0.10000000)
		(2.26256983 -0.09374351 0.10000000)
		(2.27932961 -0.10759094 0.10000000)
		(2.29608939 -0.12104432 0.10000000)
		(2.31284916 -0.13405440 0.10000000)
		(2.32960894 -0.14657351 0.10000000)
		(2.34636872 -0.15855582 0.10000000)
		(2.36312849 -0.16995743 0.10000000)
		(2.37988827 -0.18073659 0.10000000)
		(2.39664804 -0.19085383 0.10000000)
		(2.41340782 -0.20027208 0.10000000)
		(2.43016760 -0.20895685 0.10000000)
		(2.44692737 -0.21687635 0.10000000)
		(2.46368715 -0.22400156 0.10000000)
		(2.48044693 -0.23030638 0.10000000)
		(2.49720670 -0.23576774 0.10000000)
		(2.51396648 -0.24036562 0.10000000)
		(2.53072626 -0.24408318 0.10000000)
		(2.54748603 -0.24690682 0.10000000)
		(2.56424581 -0.24882619 0.10000000)
		(2.58100559 -0.24983426 0.10000000)
		(2.59776536 -0.24992733 0.10000000)
		(2.61452514 -0.24910508 0.10000000)
		(2.63128492 -0.24737050 0.10000000)
		(2.64804469 -0.24472996 0.10000000)
		(2.66480447 -0.24119312 0.10000000)
		(2.68156425 -0.23677294 0.10000000)
		(2.69832402 -0.23148560 0.10000000)
		(2.71508380 -0.22535046 0.10000000)
		(2.73184358 -0.21839001 0.10000000)
		(2.74860335 -0.21062973 0.10000000)
		(2.76536313 -0.20209804 0.10000000)
		(2.78212291 -0.19282618 0.10000000)
		(2.79888268 -0.18284812 0.10000000)
		(2.81564246 -0.17220040 0.10000000)
		(2.83240223 -0.16092201 0.10000000)
		(2.84916201 -0.14905427 0.10000000)
		(2.86592179 -0.13664063 0.10000000)
		(2.88268156 -0.12372655 0.10000000)
		(2.89944134 -0.11035934 0.10000000)
		(2.91620112 -0.09658796 0.10000000)
		(2.93296089 -0.08246282 0.10000000)
		(2.95166480 -0.07125513 0.10000000)
		(2.97036872 -0.06122718 0.10000000)
		(2.98907263 -0.05237900 0.10000000)
		(3.00777654 -0.04471057 0.10000000)
		(3.02648045 -0.03822191 0.10000000)
		(3.04518436 -0.03291300 0.10000000)
		(3.06388827 -0.02878384 0.10000000)
		(3.08259218 -0.02583445 0.10000000)
		(3.10129609 -0.02406481 0.10000000)
		(3.12000000 -0.02347493 0.10000000)
		(3.14000000 -0.02347493 0.10000000)
		(3.16000000 -0.02347493 0.10000000)
		(3.18000000 -0.02347493 0.10000000)
		(3.20000000 -0.02347493 0.10000000)
		(3.22000000 -0.02347493 0.10000000)
		(3.24000000 -0.02347493 0.10000000)
		(3.26000000 -0.02347493 0.10000000)
		(3.28000000 -0.02347493 0.10000000)
		(3.30000000 -0.02347493 0.10000000)
		(3.32000000 -0.02347493 0.10000000)
		(3.34000000 -0.02347493 0.10000000)
		(3.36000000 -0.02347493 0.10000000)
		(3.38000000 -0.02347493 0.10000000)
		(3.40000000 -0.02347493 0.10000000)
		(3.42000000 -0.02347493 0.10000000)
		(3.44000000 -0.02347493 0.10000000)
		(3.46000000 -0.02347493 0.10000000)
		(3.48000000 -0.02347493 0.10000000)
		(3.50000000 -0.02347493 0.10000000)
		(3.52000000 -0.02347493 0.10000000)
		(3.54000000 -0.02347493 0.10000000)
		(3.56000000 -0.02347493 0.10000000)
		(3.58000000 -0.02347493 0.10000000)
		(3.60000000 -0.02347493 0.10000000)
		(3.62000000 -0.02347493 0.10000000)
		(3.64000000 -0.02347493 0.10000000)
		(3.66000000 -0.02347493 0.10000000)
		(3.68000000 -0.02347493 0.10000000)
		(3.70000000 -0.02347493 0.10000000)
		(3.72000000 -0.02347493 0.10000000)
		(3.74000000 -0.02347493 0.10000000)
		(3.76000000 -0.02347493 0.10000000)
		(3.78000000 -0.02347493 0.10000000)
		(3.80000000 -0.02347493 0.10000000)
		(3.82000000 -0.02347493 0.10000000)
		(3.84000000 -0.02347493 0.10000000)
		(3.86000000 -0.02347493 0.10000000)
		(3.88000000 -0.02347493 0.10000000)
		(3.90000000 -0.02347493 0.10000000)
		(3.92000000 -0.02347493 0.10000000)
		(3.94000000 -0.02347493 0.10000000)
		(3.96000000 -0.02347493 0.10000000)
		(3.98000000 -0.02347493 0.10000000)
		(4.00000000 -0.02347493 0.10000000)
	)
	polyLine 3 2
	(
		(-1.00000000 0.74943552 0.00000000)
		(-0.98000000 0.75026885 0.00000000)
		(-0.96000000 0.75110219 0.00000000)
		(-0.94000000 0.75193553 0.00000000)
		(-0.92000000 0.75276886 0.00000000)
		(-0.90000000 0.75360220 0.00000000)
		(-0.88000000 0.75443553 0.00000000)
		(-0.86000000 0.75526887 0.00000000)
		(-0.84000000 0.75610220 0.00000000)
		(-0.82000000 0.75693554 0.00000000)
		(-0.80000000 0.75776887 0.00000000)
		(-0.78000000 0.75860221 0.00000000)
		(-0.76000000 0.75943555 0.00000000)
		(-0.74000000 0.76026888 0.00000000)
		(-0.72000000 0.76110222 0.00000000)
		(-0.70000000 0.76193555 0.00000000)
		(-0.68000000 0.76276889 0.00000000)
		(-0.66000000 0.76360222 0.00000000)
		(-0.64000000 0.76443556 0.00000000)
		(-0.62000000 0.76526889 0.00000000)
		(-0.60000000 0.76610223 0.00000000)
		(-0.58000000 0.76693557 0.00000000)
		(-0.56000000 0.76776890 0.00000000)
		(-0.54000000 0.76860224 0.00000000)
		(-0.52000000 0.76943557 0.00000000)
		(-0.50000000 0.77026891 0.00000000)
		(-0.48000000 0.77110224 0.00000000)
		(-0.46000000 0.77193558 0.00000000)
		(-0.44000000 0.77276891 0.00000000)
		(-0.42000000 0.77360225 0.00000000)
		(-0.40000000 0.77443558 0.00000000)
		(-0.38000000 0.77526892 0.00000000)
		(-0.36000000 0.77610226 0.00000000)
		(-0.34000000 0.77693559 0.00000000)
		(-0.32000000 0.77776893 0.00000000)
		(-0.30000000 0.77860226 0.00000000)
		(-0.28000000 0.77943560 0.00000000)
		(-0.26000000 0.78026893 0.00000000)
		(-0.24000000 0.78110227 0.00000000)
		(-0.22000000 0.78193560 0.00000000)
		(-0.20000000 0.78276894 0.00000000)
		(-0.18000000 0.78360228 0.00000000)
		(-0.16000000 0.78443561 0.00000000)
		(-0.14000000 0.78526895 0.00000000)
		(-0.12000000 0.78610228 0.00000000)
		(-0.10000000 0.78693562 0.00000000)
		(-0.08162011 0.78764531 0.00000000)
		(-0.06324022 0.78784881 0.00000000)
		(-0.04486034 0.78754613 0.00000000)
		(-0.02648045 0.78673727 0.00000000)
		(-0.00810056 0.78542222 0.00000000)
		(0.01027933 0.78360098 0.00000000)
		(0.02865922 0.78127356 0.00000000)
		(0.04703911 0.77843995 0.00000000)
		(0.06541899 0.77510015 0.00000000)
		(0.08379888 0.77125417 0.00000000)
		(0.10055866 0.76439621 0.00000000)
		(0.11731844 0.75656993 0.00000000)
		(0.13407821 0.74780398 0.00000000)
		(0.15083799 0.73813048 0.00000000)
		(0.16759777 0.72758485 0.00000000)
		(0.18435754 0.71620572 0.00000000)
		(0.20111732 0.70403476 0.00000000)
		(0.21787709 0.69111654 0.00000000)
		(0.23463687 0.67749838 0.00000000)
		(0.25139665 0.66323015 0.00000000)
		(0.26815642 0.64836410 0.00000000)
		(0.28491620 0.63295469 0.00000000)
		(0.30167598 0.61705835 0.00000000)
		(0.31843575 0.60073329 0.00000000)
		(0.33519553 0.58403931 0.00000000)
		(0.35195531 0.56703754 0.00000000)
		(0.36871508 0.54979025 0.00000000)
		(0.38547486 0.53236062 0.00000000)
		(0.40223464 0.51481246 0.00000000)
		(0.41899441 0.49721006 0.00000000)
		(0.43575419 0.47961788 0.00000000)
		(0.45251397 0.46210034 0.00000000)
		(0.46927374 0.44472160 0.00000000)
		(0.48603352 0.42754532 0.00000000)
		(0.50279330 0.41063439 0.00000000)
		(0.51955307 0.39405076 0.00000000)
		(0.53631285 0.37785515 0.00000000)
		(0.55307263 0.36210689 0.00000000)
		(0.56983240 0.34686365 0.00000000)
		(0.58659218 0.33218125 0.00000000)
		(0.60335196 0.31811347 0.00000000)
		(0.62011173 0.30471182 0.00000000)
		(0.63687151 0.29202541 0.00000000)
		(0.65363128 0.28010067 0.00000000)
		(0.67039106 0.26898129 0.00000000)
		(0.68715084 0.25870800 0.00000000)
		(0.70391061 0.24931841 0.00000000)
		(0.72067039 0.24084691 0.00000000)
		(0.73743017 0.23332454 0.00000000)
		(0.75418994 0.22677884 0.00000000)
		(0.77094972 0.22123377 0.00000000)
		(0.78770950 0.21670967 0.00000000)
		(0.80446927 0.21322308 0.00000000)
		(0.82122905 0.21078678 0.00000000)
		(0.83798883 0.20940969 0.00000000)
		(0.85474860 0.20909686 0.00000000)
		(0.87150838 0.20984943 0.00000000)
		(0.88826816 0.21166465 0.00000000)
		(0.90502793 0.21453586 0.00000000)
		(0.92178771 0.21845256 0.00000000)
		(0.93854749 0.22340039 0.00000000)
		(0.95530726 0.22936124 0.00000000)
		(0.97206704 0.23631327 0.00000000)
		(0.98882682 0.24423103 0.00000000)
		(1.00558659 0.25308552 0.00000000)
		(1.02234637 0.26284430 0.00000000)
		(1.03910615 0.27347164 0.00000000)
		(1.05586592 0.28492862 0.00000000)
		(1.07262570 0.29717327 0.00000000)
		(1.08938547 0.31016075 0.00000000)
		(1.10614525 0.32384350 0.00000000)
		(1.12290503 0.33817141 0.00000000)
		(1.13966480 0.35309199 0.00000000)
		(1.15642458 0.36855061 0.00000000)
		(1.17318436 0.38449065 0.00000000)
		(1.18994413 0.40085372 0.00000000)
		(1.20670391 0.41757991 0.00000000)
		(1.22346369 0.43460796 0.00000000)
		(1.24022346 0.45187550 0.00000000)
		(1.25698324 0.46931929 0.00000000)
		(1.27374302 0.48687544 0.00000000)
		(1.29050279 0.50447966 0.00000000)
		(1.30726257 0.52206747 0.00000000)
		(1.32402235 0.53957447 0.00000000)
		(1.34078212 0.55693652 0.00000000)
		(1.35754190 0.57409006 0.00000000)
		(1.37430168 0.59097224 0.00000000)
		(1.39106145 0.60752125 0.00000000)
		(1.40782123 0.62367648 0.00000000)
		(1.42458101 0.63937875 0.00000000)
		(1.44134078 0.65457056 0.00000000)
		(1.45810056 0.66919628 0.00000000)
		(1.47486034 0.68320233 0.00000000)
		(1.49162011 0.69653742 0.00000000)
		(1.50837989 0.70915272 0.00000000)
		(1.52513966 0.72100202 0.00000000)
		(1.54189944 0.73204192 0.00000000)
		(1.55865922 0.74223199 0.00000000)
		(1.57541899 0.75153491 0.00000000)
		(1.59217877 0.75991661 0.00000000)
		(1.60893855 0.76734640 0.00000000)
		(1.62569832 0.77379706 0.00000000)
		(1.64245810 0.77924496 0.00000000)
		(1.65921788 0.78367017 0.00000000)
		(1.67597765 0.78705646 0.00000000)
		(1.69273743 0.78939143 0.00000000)
		(1.70949721 0.79066654 0.00000000)
		(1.72625698 0.79087712 0.00000000)
		(1.74301676 0.79002239 0.00000000)
		(1.75977654 0.78810548 0.00000000)
		(1.77653631 0.78513342 0.00000000)
		(1.79329609 0.78111709 0.00000000)
		(1.81005587 0.77607120 0.00000000)
		(1.82681564 0.77001422 0.00000000)
		(1.84357542 0.76296835 0.00000000)
		(1.86033520 0.75495938 0.00000000)
		(1.87709497 0.74601666 0.00000000)
		(1.89385475 0.73617292 0.00000000)
		(1.91061453 0.72546422 0.00000000)
		(1.92737430 0.71392979 0.00000000)
		(1.94413408 0.70161186 0.00000000)
		(1.96089385 0.68855555 0.00000000)
		(1.97765363 0.67480868 0.00000000)
		(1.99441341 0.66042158 0.00000000)
		(2.01117318 0.64544696 0.00000000)
		(2.02793296 0.62993966 0.00000000)
		(2.04469274 0.61395647 0.00000000)
		(2.06145251 0.59755592 0.00000000)
		(2.07821229 0.58079808 0.00000000)
		(2.09497207 0.56374433 0.00000000)
		(2.11173184 0.54645713 0.00000000)
		(2.12849162 0.52899978 0.00000000)
		(2.14525140 0.51143622 0.00000000)
		(2.16201117 0.49383077 0.00000000)
		(2.17877095 0.47624792 0.00000000)
		(2.19553073 0.45875206 0.00000000)
		(2.21229050 0.44140727 0.00000000)
		(2.22905028 0.42427707 0.00000000)
		(2.24581006 0.40742419 0.00000000)
		(2.26256983 0.39091036 0.00000000)
		(2.27932961 0.37479606 0.00000000)
		(2.29608939 0.35914031 0.00000000)
		(2.31284916 0.34400044 0.00000000)
		(2.32960894 0.32943190 0.00000000)
		(2.34636872 0.31548805 0.00000000)
		(2.36312849 0.30221996 0.00000000)
		(2.37988827 0.28967621 0.00000000)
		(2.39664804 0.27790275 0.00000000)
		(2.41340782 0.26694270 0.00000000)
		(2.43016760 0.25683620 0.00000000)
		(2.44692737 0.24762026 0.00000000)
		(2.46368715 0.23932863 0.00000000)
		(2.48044693 0.23199168 0.00000000)
		(2.49720670 0.22563629 0.00000000)