/*--------------------------------*- C++ -*----------------------------------*\\
/*--------------------------------*- C++ -*----------------------------------*\\
| =========                 |                                                 |
| \\\\      /  F ield         | OpenFOAM: The Open Source CFD Toolbox           |
|  \\\\    /   O peration     | Version:  v2012                                 |
|   \\\\  /    A nd           | Website:  www.openfoam.com                      |
|    \\\\/     M anipulation  |                                                 |
\\*---------------------------------------------------------------------------*/
FoamFile
{
    version     2.0;
    format      ascii;
    class       dictionary;
    object      blockMeshDict;
}
// * * * * * * * * * * * * * * * * * * * * * * * * * * * * * * * * * * * * * //

scale   0.01;

xmin -1;
xmax 5;
ymin 0;
ymax 0.5;
zmin 0;
zmax 0.1;

vertices
(
    (-1.00000000 -0.24120040 0.00000000)
    (4.00000000 0.08364905 0.00000000)
    (4.00000000 0.58364905 0.00000000)
    (-1.00000000 0.25879960 0.00000000)
    (-1.00000000 -0.24120040 0.10000000)
    (4.00000000 0.08364905 0.10000000)
    (4.00000000 0.58364905 0.10000000)
    (-1.00000000 0.25879960 0.10000000)
);

blocks
(
    hex (0 1 2 3 4 5 6 7) (200 20 1) simpleGrading (1 1 1)
);

edges
(
	polyLine 0 1
	(
		(-1.00000000 -0.24120040 0.00000000)
		(-0.98000000 -0.24120040 0.00000000)
		(-0.96000000 -0.24120040 0.00000000)
		(-0.94000000 -0.24120040 0.00000000)
		(-0.92000000 -0.24120040 0.00000000)
		(-0.90000000 -0.24120040 0.00000000)
		(-0.88000000 -0.24120040 0.00000000)
		(-0.86000000 -0.24120040 0.00000000)
		(-0.84000000 -0.24120040 0.00000000)
		(-0.82000000 -0.24120040 0.00000000)
		(-0.80000000 -0.24120040 0.00000000)
		(-0.78000000 -0.24120040 0.00000000)
		(-0.76000000 -0.24120040 0.00000000)
		(-0.74000000 -0.24120040 0.00000000)
		(-0.72000000 -0.24120040 0.00000000)
		(-0.70000000 -0.24120040 0.00000000)
		(-0.68000000 -0.24120040 0.00000000)
		(-0.66000000 -0.24120040 0.00000000)
		(-0.64000000 -0.24120040 0.00000000)
		(-0.62000000 -0.24120040 0.00000000)
		(-0.60000000 -0.24120040 0.00000000)
		(-0.58000000 -0.24120040 0.00000000)
		(-0.56000000 -0.24120040 0.00000000)
		(-0.54000000 -0.24120040 0.00000000)
		(-0.52000000 -0.24120040 0.00000000)
		(-0.50000000 -0.24120040 0.00000000)
		(-0.48000000 -0.24120040 0.00000000)
		(-0.46000000 -0.24120040 0.00000000)
		(-0.44000000 -0.24120040 0.00000000)
		(-0.42000000 -0.24120040 0.00000000)
		(-0.40000000 -0.24120040 0.00000000)
		(-0.38000000 -0.24120040 0.00000000)
		(-0.36000000 -0.24120040 0.00000000)
		(-0.34000000 -0.24120040 0.00000000)
		(-0.32000000 -0.24120040 0.00000000)
		(-0.30000000 -0.24120040 0.00000000)
		(-0.28000000 -0.24120040 0.00000000)
		(-0.26000000 -0.24120040 0.00000000)
		(-0.24000000 -0.24120040 0.00000000)
		(-0.22000000 -0.24120040 0.00000000)
		(-0.20000000 -0.24120040 0.00000000)
		(-0.18000000 -0.24120040 0.00000000)
		(-0.16000000 -0.24120040 0.00000000)
		(-0.14000000 -0.24120040 0.00000000)
		(-0.12000000 -0.24120040 0.00000000)
		(-0.10000000 -0.24120040 0.00000000)
		(-0.08162011 -0.24128650 0.00000000)
		(-0.06324022 -0.24154480 0.00000000)
		(-0.04486034 -0.24197531 0.00000000)
		(-0.02648045 -0.24257802 0.00000000)
		(-0.00810056 -0.24335293 0.00000000)
		(0.01027933 -0.24430005 0.00000000)
		(0.02865922 -0.24541937 0.00000000)
		(0.04703911 -0.24671089 0.00000000)
		(0.06541899 -0.24817462 0.00000000)
		(0.08379888 -0.24981055 0.00000000)
		(0.10055866 -0.24875249 0.00000000)
		(0.11731844 -0.24676885 0.00000000)
		(0.13407821 -0.24386702 0.00000000)
		(0.15083799 -0.24005780 0.00000000)
		(0.16759777 -0.23535535 0.00000000)
		(0.18435754 -0.22977717 0.00000000)
		(0.20111732 -0.22334402 0.00000000)
		(0.21787709 -0.21607983 0.00000000)
		(0.23463687 -0.20801164 0.00000000)
		(0.25139665 -0.19916947 0.00000000)
		(0.26815642 -0.18958621 0.00000000)
		(0.28491620 -0.17929752 0.00000000)
		(0.30167598 -0.16834169 0.00000000)
		(0.31843575 -0.15675949 0.00000000)
		(0.33519553 -0.14459400 0.00000000)
		(0.35195531 -0.13189049 0.00000000)
		(0.36871508 -0.11869624 0.00000000)
		(0.38547486 -0.10506034 0.00000000)
		(0.40223464 -0.09103351 0.00000000)
		(0.41899441 -0.07666797 0.00000000)
		(0.43575419 -0.06201715 0.00000000)
		(0.45251397 -0.04713558 0.00000000)
		(0.46927374 -0.03207862 0.00000000)
		(0.48603352 -0.01690229 0.00000000)
		(0.50279330 -0.00166308 0.00000000)
		(0.51955307 0.01358232 0.00000000)
		(0.53631285 0.02877718 0.00000000)
		(0.55307263 0.04386497 0.00000000)
		(0.56983240 0.05878954 0.00000000)
		(0.58659218 0.07349536 0.00000000)
		(0.60335196 0.08792771 0.00000000)
		(0.62011173 0.10203290 0.00000000)
		(0.63687151 0.11575844 0.00000000)
		(0.65363128 0.12905325 0.00000000)
		(0.67039106 0.14186787 0.00000000)
		(0.68715084 0.15415462 0.00000000)
		(0.70391061 0.16586779 0.00000000)
		(0.72067039 0.17696377 0.00000000)
		(0.73743017 0.18740130 0.00000000)
		(0.75418994 0.19714153 0.00000000)
		(0.77094972 0.20614823 0.00000000)
		(0.78770950 0.21438787 0.00000000)
		(0.80446927 0.22182980 0.00000000)
		(0.82122905 0.22844634 0.00000000)
		(0.83798883 0.23421285 0.00000000)
		(0.85474860 0.23910789 0.00000000)
		(0.87150838 0.24311323 0.00000000)
		(0.88826816 0.24621399 0.00000000)
		(0.90502793 0.24839861 0.00000000)
		(0.92178771 0.24965897 0.00000000)
		(0.93854749 0.24999039 0.00000000)
		(0.95530726 0.24939162 0.00000000)
		(0.97206704 0.24786490 0.00000000)
		(0.98882682 0.24541590 0.00000000)
		(1.00558659 0.24205374 0.00000000)
		(1.02234637 0.23779093 0.00000000)
		(1.03910615 0.23264334 0.00000000)
		(1.05586592 0.22663010 0.00000000)
		(1.07262570 0.21977361 0.00000000)
		(1.08938547 0.21209936 0.00000000)
		(1.10614525 0.20363592 0.00000000)
		(1.12290503 0.19441478 0.00000000)
		(1.13966480 0.18447024 0.00000000)
		(1.15642458 0.17383932 0.00000000)
		(1.17318436 0.16256156 0.00000000)
		(1.18994413 0.15067892 0.00000000)
		(1.20670391 0.13823564 0.00000000)
		(1.22346369 0.12527799 0.00000000)
		(1.24022346 0.11185420 0.00000000)
		(1.25698324 0.09801422 0.00000000)
		(1.27374302 0.08380954 0.00000000)
		(1.29050279 0.06929301 0.00000000)
		(1.30726257 0.05451866 0.00000000)
		(1.32402235 0.03954144 0.00000000)
		(1.34078212 0.02441710 0.00000000)
		(1.35754190 0.00920190 0.00000000)
		(1.37430168 -0.00604753 0.00000000)
		(1.39106145 -0.02127446 0.00000000)
		(1.40782123 -0.03642223 0.00000000)
		(1.42458101 -0.05143448 0.00000000)
		(1.44134078 -0.06625535 0.00000000)
		(1.45810056 -0.08082970 0.00000000)
		(1.47486034 -0.09510328 0.00000000)
		(1.49162011 -0.10902300 0.00000000)
		(1.50837989 -0.12253705 0.00000000)
		(1.52513966 -0.13559517 0.00000000)
		(1.54189944 -0.14814875 0.00000000)
		(1.55865922 -0.16015108 0.00000000)
		(1.57541899 -0.17155752 0.00000000)
		(1.59217877 -0.18232561 0.00000000)
		(1.60893855 -0.19241529 0.00000000)
		(1.62569832 -0.20178902 0.00000000)
		(1.64245810 -0.21041192 0.00000000)
		(1.65921788 -0.21825190 0.00000000)
		(1.67597765 -0.22527979 0.00000000)
		(1.69273743 -0.23146945 0.00000000)
		(1.70949721 -0.23679784 0.00000000)
		(1.72625698 -0.24124513 0.00000000)
		(1.74301676 -0.24479479 0.00000000)
		(1.75977654 -0.24743359 0.00000000)
		(1.77653631 -0.24915172 0.00000000)
		(1.79329609 -0.24994279 0.00000000)
		(1.81005587 -0.24980386 0.00000000)
		(1.82681564 -0.24873544 0.00000000)
		(1.84357542 -0.24674150 0.00000000)
		(1.86033520 -0.24382947 0.00000000)
		(1.87709497 -0.24001019 0.00000000)
		(1.89385475 -0.23529785 0.00000000)
		(1.91061453 -0.22971000 0.00000000)
		(1.92737430 -0.22326744 0.00000000)
		(1.94413408 -0.21599412 0.00000000)
		(1.96089385 -0.20791711 0.00000000)
		(1.97765363 -0.19906647 0.00000000)
		(1.99441341 -0.18947514 0.00000000)
		(2.01117318 -0.17917878 0.00000000)
		(2.02793296 -0.16821573 0.00000000)
		(2.04469274 -0.15662677 0.00000000)
		(2.06145251 -0.14445502 0.00000000)
		(2.07821229 -0.13174577 0.00000000)
		(2.09497207 -0.11854631 0.00000000)
		(2.11173184 -0.10490576 0.00000000)
		(2.12849162 -0.09087486 0.00000000)
		(2.14525140 -0.07650583 0.00000000)
		(2.16201117 -0.06185214 0.00000000)
		(2.17877095 -0.04696830 0.00000000)
		(2.19553073 -0.03190969 0.00000000)
		(2.21229050 -0.01673236 0.00000000)
		(2.22905028 -0.00149276 0.00000000)
		(2.24581006 0.01375239 0.00000000)
		(2.26256983 0.02894637 0.00000000)
		(2.27932961 0.04403264 0.00000000)
		(2.29608939 0.05895507 0.00000000)
		(2.31284916 0.07365814 0.00000000)
		(2.32960894 0.08808714 0.00000000)
		(2.34636872 0.10218837 0.00000000)
		(2.36312849 0.11590938 0.00000000)
		(2.37988827 0.12919910 0.00000000)
		(2.39664804 0.14200809 0.00000000)
		(2.41340782 0.15428868 0.00000000)
		(2.43016760 0.16599518 0.00000000)
		(2.44692737 0.17708404 0.00000000)
		(2.46368715 0.18751399 0.00000000)
		(2.48044693 0.19724623 0.00000000)
		(2.49720670 0.20624454 0.00000000)
		(2.51396648 0.21447544 0.00000000)
		(2.53072626 0.22190830 0.00000000)
		(2.54748603 0.22851547 0.00000000)
		(2.56424581 0.23427236 0.00000000)
		(2.58100559 0.23915756 0.00000000)
		(2.59776536 0.24315288 0.00000000)
		(2.61452514 0.24624346 0.00000000)
		(2.63128492 0.24841780 0.00000000)
		(2.64804469 0.24966781 0.00000000)
		(2.66480447 0.24998883 0.00000000)
		(2.68156425 0.24937968 0.00000000)
		(2.69832402 0.24784262 0.00000000)
		(2.71508380 0.24538337 0.00000000)
		(2.73184358 0.24201108 0.00000000)
		(2.74860335 0.23773830 0.00000000)
		(2.76536313 0.23258092 0.00000000)
		(2.78212291 0.22655814 0.00000000)
		(2.79888268 0.21969237 0.00000000)
		(2.81564246 0.21200915 0.00000000)
		(2.83240223 0.20353707 0.00000000)
		(2.84916201 0.19430765 0.00000000)
		(2.86592179 0.18435524 0.00000000)
		(2.88268156 0.17371687 0.00000000)
		(2.89944134 0.16243212 0.00000000)
		(2.91620112 0.15054298 0.00000000)
		(2.93296089 0.13809369 0.00000000)
		(2.95166480 0.12774921 0.00000000)
		(2.97036872 0.11849362 0.00000000)
		(2.98907263 0.11032692 0.00000000)
		(3.00777654 0.10324912 0.00000000)
		(3.02648045 0.09726021 0.00000000)
		(3.04518436 0.09236019 0.00000000)
		(3.06388827 0.08854907 0.00000000)
		(3.08259218 0.08582684 0.00000000)
		(3.10129609 0.08419350 0.00000000)
		(3.12000000 0.08364905 0.00000000)
		(3.14000000 0.08364905 0.00000000)
		(3.16000000 0.08364905 0.00000000)
		(3.18000000 0.08364905 0.00000000)
		(3.20000000 0.08364905 0.00000000)
		(3.22000000 0.08364905 0.00000000)
		(3.24000000 0.08364905 0.00000000)
		(3.26000000 0.08364905 0.00000000)
		(3.28000000 0.08364905 0.00000000)
		(3.30000000 0.08364905 0.00000000)
		(3.32000000 0.08364905 0.00000000)
		(3.34000000 0.08364905 0.00000000)
		(3.36000000 0.08364905 0.00000000)
		(3.38000000 0.08364905 0.00000000)
		(3.40000000 0.08364905 0.00000000)
		(3.42000000 0.08364905 0.00000000)
		(3.44000000 0.08364905 0.00000000)
		(3.46000000 0.08364905 0.00000000)
		(3.48000000 0.08364905 0.00000000)
		(3.50000000 0.08364905 0.00000000)
		(3.52000000 0.08364905 0.00000000)
		(3.54000000 0.08364905 0.00000000)
		(3.56000000 0.08364905 0.00000000)
		(3.58000000 0.08364905 0.00000000)
		(3.60000000 0.08364905 0.00000000)
		(3.62000000 0.08364905 0.00000000)
		(3.64000000 0.08364905 0.00000000)
		(3.66000000 0.08364905 0.00000000)
		(3.68000000 0.08364905 0.00000000)
		(3.70000000 0.08364905 0.00000000)
		(3.72000000 0.08364905 0.00000000)
		(3.74000000 0.08364905 0.00000000)
		(3.76000000 0.08364905 0.00000000)
		(3.78000000 0.08364905 0.00000000)
		(3.80000000 0.08364905 0.00000000)
		(3.82000000 0.08364905 0.00000000)
		(3.84000000 0.08364905 0.00000000)
		(3.86000000 0.08364905 0.00000000)
		(3.88000000 0.08364905 0.00000000)
		(3.90000000 0.08364905 0.00000000)
		(3.92000000 0.08364905 0.00000000)
		(3.94000000 0.08364905 0.00000000)
		(3.96000000 0.08364905 0.00000000)
		(3.98000000 0.08364905 0.00000000)
		(4.00000000 0.08364905 0.00000000)
	)
	polyLine 4 5
	(
		(-1.00000000 -0.24120040 0.10000000)
		(-0.98000000 -0.24120040 0.10000000)
		(-0.96000000 -0.24120040 0.10000000)
		(-0.94000000 -0.24120040 0.10000000)
		(-0.92000000 -0.24120040 0.10000000)
		(-0.90000000 -0.24120040 0.10000000)
		(-0.88000000 -0.24120040 0.10000000)
		(-0.86000000 -0.24120040 0.10000000)
		(-0.84000000 -0.24120040 0.10000000)
		(-0.82000000 -0.24120040 0.10000000)
		(-0.80000000 -0.24120040 0.10000000)
		(-0.78000000 -0.24120040 0.10000000)
		(-0.76000000 -0.24120040 0.10000000)
		(-0.74000000 -0.24120040 0.10000000)
		(-0.72000000 -0.24120040 0.10000000)
		(-0.70000000 -0.24120040 0.10000000)
		(-0.68000000 -0.24120040 0.10000000)
		(-0.66000000 -0.24120040 0.10000000)
		(-0.64000000 -0.24120040 0.10000000)
		(-0.62000000 -0.24120040 0.10000000)
		(-0.60000000 -0.24120040 0.10000000)
		(-0.58000000 -0.24120040 0.10000000)
		(-0.56000000 -0.24120040 0.10000000)
		(-0.54000000 -0.24120040 0.10000000)
		(-0.52000000 -0.24120040 0.10000000)
		(-0.50000000 -0.24120040 0.10000000)
		(-0.48000000 -0.24120040 0.10000000)
		(-0.46000000 -0.24120040 0.10000000)
		(-0.44000000 -0.24120040 0.10000000)
		(-0.42000000 -0.24120040 0.10000000)
		(-0.40000000 -0.24120040 0.10000000)
		(-0.38000000 -0.24120040 0.10000000)
		(-0.36000000 -0.24120040 0.10000000)
		(-0.34000000 -0.24120040 0.10000000)
		(-0.32000000 -0.24120040 0.10000000)
		(-0.30000000 -0.24120040 0.10000000)
		(-0.28000000 -0.24120040 0.10000000)
		(-0.26000000 -0.24120040 0.10000000)
		(-0.24000000 -0.24120040 0.10000000)
		(-0.22000000 -0.24120040 0.10000000)
		(-0.20000000 -0.24120040 0.10000000)
		(-0.18000000 -0.24120040 0.10000000)
		(-0.16000000 -0.24120040 0.10000000)
		(-0.14000000 -0.24120040 0.10000000)
		(-0.12000000 -0.24120040 0.10000000)
		(-0.10000000 -0.24120040 0.10000000)
		(-0.08162011 -0.24128650 0.10000000)
		(-0.06324022 -0.24154480 0.10000000)
		(-0.04486034 -0.24197531 0.10000000)
		(-0.02648045 -0.24257802 0.10000000)
		(-0.00810056 -0.24335293 0.10000000)
		(0.01027933 -0.24430005 0.10000000)
		(0.02865922 -0.24541937 0.10000000)
		(0.04703911 -0.24671089 0.10000000)
		(0.06541899 -0.24817462 0.10000000)
		(0.08379888 -0.24981055 0.10000000)
		(0.10055866 -0.24875249 0.10000000)
		(0.11731844 -0.24676885 0.10000000)
		(0.13407821 -0.24386702 0.10000000)
		(0.15083799 -0.24005780 0.10000000)
		(0.16759777 -0.23535535 0.10000000)
		(0.18435754 -0.22977717 0.10000000)
		(0.20111732 -0.22334402 0.10000000)
		(0.21787709 -0.21607983 0.10000000)
		(0.23463687 -0.20801164 0.10000000)
		(0.25139665 -0.19916947 0.10000000)
		(0.26815642 -0.18958621 0.10000000)
		(0.28491620 -0.17929752 0.10000000)
		(0.30167598 -0.16834169 0.10000000)
		(0.31843575 -0.15675949 0.10000000)
		(0.33519553 -0.14459400 0.10000000)
		(0.35195531 -0.13189049 0.10000000)
		(0.36871508 -0.11869624 0.10000000)
		(0.38547486 -0.10506034 0.10000000)
		(0.40223464 -0.09103351 0.10000000)
		(0.41899441 -0.07666797 0.10000000)
		(0.43575419 -0.06201715 0.10000000)
		(0.45251397 -0.04713558 0.10000000)
		(0.46927374 -0.03207862 0.10000000)
		(0.48603352 -0.01690229 0.10000000)
		(0.50279330 -0.00166308 0.10000000)
		(0.51955307 0.01358232 0.10000000)
		(0.53631285 0.02877718 0.10000000)
		(0.55307263 0.04386497 0.10000000)
		(0.56983240 0.05878954 0.10000000)
		(0.58659218 0.07349536 0.10000000)
		(0.60335196 0.08792771 0.10000000)
		(0.62011173 0.10203290 0.10000000)
		(0.63687151 0.11575844 0.10000000)
		(0.65363128 0.12905325 0.10000000)
		(0.67039106 0.14186787 0.10000000)
		(0.68715084 0.15415462 0.10000000)
		(0.70391061 0.16586779 0.10000000)
		(0.72067039 0.17696377 0.10000000)
		(0.73743017 0.18740130 0.10000000)
		(0.75418994 0.19714153 0.10000000)
		(0.77094972 0.20614823 0.10000000)
		(0.78770950 0.21438787 0.10000000)
		(0.80446927 0.22182980 0.10000000)
		(0.82122905 0.22844634 0.10000000)
		(0.83798883 0.23421285 0.10000000)
		(0.85474860 0.23910789 0.10000000)
		(0.87150838 0.24311323 0.10000000)
		(0.88826816 0.24621399 0.10000000)
		(0.90502793 0.24839861 0.10000000)
		(0.92178771 0.24965897 0.10000000)
		(0.93854749 0.24999039 0.10000000)
		(0.95530726 0.24939162 0.10000000)
		(0.97206704 0.24786490 0.10000000)
		(0.98882682 0.24541590 0.10000000)
		(1.00558659 0.24205374 0.10000000)
		(1.02234637 0.23779093 0.10000000)
		(1.03910615 0.23264334 0.10000000)
		(1.05586592 0.22663010 0.10000000)
		(1.07262570 0.21977361 0.10000000)
		(1.08938547 0.21209936 0.10000000)
		(1.10614525 0.20363592 0.10000000)
		(1.12290503 0.19441478 0.10000000)
		(1.13966480 0.18447024 0.10000000)
		(1.15642458 0.17383932 0.10000000)
		(1.17318436 0.16256156 0.10000000)
		(1.18994413 0.15067892 0.10000000)
		(1.20670391 0.13823564 0.10000000)
		(1.22346369 0.12527799 0.10000000)
		(1.24022346 0.11185420 0.10000000)
		(1.25698324 0.09801422 0.10000000)
		(1.27374302 0.08380954 0.10000000)
		(1.29050279 0.06929301 0.10000000)
		(1.30726257 0.05451866 0.10000000)
		(1.32402235 0.03954144 0.10000000)
		(1.34078212 0.02441710 0.10000000)
		(1.35754190 0.00920190 0.10000000)
		(1.37430168 -0.00604753 0.10000000)
		(1.39106145 -0.02127446 0.10000000)
		(1.40782123 -0.03642223 0.10000000)
		(1.42458101 -0.05143448 0.10000000)
		(1.44134078 -0.06625535 0.10000000)
		(1.45810056 -0.08082970 0.10000000)
		(1.47486034 -0.09510328 0.10000000)
		(1.49162011 -0.10902300 0.10000000)
		(1.50837989 -0.12253705 0.10000000)
		(1.52513966 -0.13559517 0.10000000)
		(1.54189944 -0.14814875 0.10000000)
		(1.55865922 -0.16015108 0.10000000)
		(1.57541899 -0.17155752 0.10000000)
		(1.59217877 -0.18232561 0.10000000)
		(1.60893855 -0.19241529 0.10000000)
		(1.62569832 -0.20178902 0.10000000)
		(1.64245810 -0.21041192 0.10000000)
		(1.65921788 -0.21825190 0.10000000)
		(1.67597765 -0.22527979 0.10000000)
		(1.69273743 -0.23146945 0.10000000)
		(1.70949721 -0.23679784 0.10000000)
		(1.72625698 -0.24124513 0.10000000)
		(1.74301676 -0.24479479 0.10000000)
		(1.75977654 -0.24743359 0.10000000)
		(1.77653631 -0.24915172 0.10000000)
		(1.79329609 -0.24994279 0.10000000)
		(1.81005587 -0.24980386 0.10000000)
		(1.82681564 -0.24873544 0.10000000)
		(1.84357542 -0.24674150 0.10000000)
		(1.86033520 -0.24382947 0.10000000)
		(1.87709497 -0.24001019 0.10000000)
		(1.89385475 -0.23529785 0.10000000)
		(1.91061453 -0.22971000 0.10000000)
		(1.92737430 -0.22326744 0.10000000)
		(1.94413408 -0.21599412 0.10000000)
		(1.96089385 -0.20791711 0.10000000)
		(1.97765363 -0.19906647 0.10000000)
		(1.99441341 -0.18947514 0.10000000)
		(2.01117318 -0.17917878 0.10000000)
		(2.02793296 -0.16821573 0.10000000)
		(2.04469274 -0.15662677 0.10000000)
		(2.06145251 -0.14445502 0.10000000)
		(2.07821229 -0.13174577 0.10000000)
		(2.09497207 -0.11854631 0.10000000)
		(2.11173184 -0.10490576 0.10000000)
		(2.12849162 -0.09087486 0.10000000)
		(2.14525140 -0.07650583 0.10000000)
		(2.16201117 -0.06185214 0.10000000)
		(2.17877095 -0.04696830 0.10000000)
		(2.19553073 -0.03190969 0.10000000)
		(2.21229050 -0.01673236 0.10000000)
		(2.22905028 -0.00149276 0.10000000)
		(2.24581006 0.01375239 0.10000000)
		(2.26256983 0.02894637 0.10000000)
		(2.27932961 0.04403264 0.10000000)
		(2.29608939 0.05895507 0.10000000)
		(2.31284916 0.07365814 0.10000000)
		(2.32960894 0.08808714 0.10000000)
		(2.34636872 0.10218837 0.10000000)
		(2.36312849 0.11590938 0.10000000)
		(2.37988827 0.12919910 0.10000000)
		(2.39664804 0.14200809 0.10000000)
		(2.41340782 0.15428868 0.10000000)
		(2.43016760 0.16599518 0.10000000)
		(2.44692737 0.17708404 0.10000000)
		(2.46368715 0.18751399 0.10000000)
		(2.48044693 0.19724623 0.10000000)
		(2.49720670 0.20624454 0.10000000)
		(2.51396648 0.21447544 0.10000000)
		(2.53072626 0.22190830 0.10000000)
		(2.54748603 0.22851547 0.10000000)
		(2.56424581 0.23427236 0.10000000)
		(2.58100559 0.23915756 0.10000000)
		(2.59776536 0.24315288 0.10000000)
		(2.61452514 0.24624346 0.10000000)
		(2.63128492 0.24841780 0.10000000)
		(2.64804469 0.24966781 0.10000000)
		(2.66480447 0.24998883 0.10000000)
		(2.68156425 0.24937968 0.10000000)
		(2.69832402 0.24784262 0.10000000)
		(2.71508380 0.24538337 0.10000000)
		(2.73184358 0.24201108 0.10000000)
		(2.74860335 0.23773830 0.10000000)
		(2.76536313 0.23258092 0.10000000)
		(2.78212291 0.22655814 0.10000000)
		(2.79888268 0.21969237 0.10000000)
		(2.81564246 0.21200915 0.10000000)
		(2.83240223 0.20353707 0.10000000)
		(2.84916201 0.19430765 0.10000000)
		(2.86592179 0.18435524 0.10000000)
		(2.88268156 0.17371687 0.10000000)
		(2.89944134 0.16243212 0.10000000)
		(2.91620112 0.15054298 0.10000000)
		(2.93296089 0.13809369 0.10000000)
		(2.95166480 0.12774921 0.10000000)
		(2.97036872 0.11849362 0.10000000)
		(2.98907263 0.11032692 0.10000000)
		(3.00777654 0.10324912 0.10000000)
		(3.02648045 0.09726021 0.10000000)
		(3.04518436 0.09236019 0.10000000)
		(3.06388827 0.08854907 0.10000000)
		(3.08259218 0.08582684 0.10000000)
		(3.10129609 0.08419350 0.10000000)
		(3.12000000 0.08364905 0.10000000)
		(3.14000000 0.08364905 0.10000000)
		(3.16000000 0.08364905 0.10000000)
		(3.18000000 0.08364905 0.10000000)
		(3.20000000 0.08364905 0.10000000)
		(3.22000000 0.08364905 0.10000000)
		(3.24000000 0.08364905 0.10000000)
		(3.26000000 0.08364905 0.10000000)
		(3.28000000 0.08364905 0.10000000)
		(3.30000000 0.08364905 0.10000000)
		(3.32000000 0.08364905 0.10000000)
		(3.34000000 0.08364905 0.10000000)
		(3.36000000 0.08364905 0.10000000)
		(3.38000000 0.08364905 0.10000000)
		(3.40000000 0.08364905 0.10000000)
		(3.42000000 0.08364905 0.10000000)
		(3.44000000 0.08364905 0.10000000)
		(3.46000000 0.08364905 0.10000000)
		(3.48000000 0.08364905 0.10000000)
		(3.50000000 0.08364905 0.10000000)
		(3.52000000 0.08364905 0.10000000)
		(3.54000000 0.08364905 0.10000000)
		(3.56000000 0.08364905 0.10000000)
		(3.58000000 0.08364905 0.10000000)
		(3.60000000 0.08364905 0.10000000)
		(3.62000000 0.08364905 0.10000000)
		(3.64000000 0.08364905 0.10000000)
		(3.66000000 0.08364905 0.10000000)
		(3.68000000 0.08364905 0.10000000)
		(3.70000000 0.08364905 0.10000000)
		(3.72000000 0.08364905 0.10000000)
		(3.74000000 0.08364905 0.10000000)
		(3.76000000 0.08364905 0.10000000)
		(3.78000000 0.08364905 0.10000000)
		(3.80000000 0.08364905 0.10000000)
		(3.82000000 0.08364905 0.10000000)
		(3.84000000 0.08364905 0.10000000)
		(3.86000000 0.08364905 0.10000000)
		(3.88000000 0.08364905 0.10000000)
		(3.90000000 0.08364905 0.10000000)
		(3.92000000 0.08364905 0.10000000)
		(3.94000000 0.08364905 0.10000000)
		(3.96000000 0.08364905 0.10000000)
		(3.98000000 0.08364905 0.10000000)
		(4.00000000 0.08364905 0.10000000)
	)
	polyLine 3 2
	(
		(-1.00000000 0.25879960 0.00000000)
		(-0.98000000 0.26067125 0.00000000)
		(-0.96000000 0.26254291 0.00000000)
		(-0.94000000 0.26441456 0.00000000)
		(-0.92000000 0.26628621 0.00000000)
		(-0.90000000 0.26815786 0.00000000)
		(-0.88000000 0.27002951 0.00000000)
		(-0.86000000 0.27190117 0.00000000)
		(-0.84000000 0.27377282 0.00000000)
		(-0.82000000 0.27564447 0.00000000)
		(-0.80000000 0.27751612 0.00000000)
		(-0.78000000 0.27938777 0.00000000)
		(-0.76000000 0.28125942 0.00000000)
		(-0.74000000 0.28313108 0.00000000)
		(-0.72000000 0.28500273 0.00000000)
		(-0.70000000 0.28687438 0.00000000)
		(-0.68000000 0.28874603 0.00000000)
		(-0.66000000 0.29061768 0.00000000)
		(-0.64000000 0.29248934 0.00000000)
		(-0.62000000 0.29436099 0.00000000)
		(-0.60000000 0.29623264 0.00000000)
		(-0.58000000 0.29810429 0.00000000)
		(-0.56000000 0.29997594 0.00000000)
		(-0.54000000 0.30184760 0.00000000)
		(-0.52000000 0.30371925 0.00000000)
		(-0.50000000 0.30559090 0.00000000)
		(-0.48000000 0.30746255 0.00000000)
		(-0.46000000 0.30933420 0.00000000)
		(-0.44000000 0.31120585 0.00000000)
		(-0.42000000 0.31307751 0.00000000)
		(-0.40000000 0.31494916 0.00000000)
		(-0.38000000 0.31682081 0.00000000)
		(-0.36000000 0.31869246 0.00000000)
		(-0.34000000 0.32056411 0.00000000)
		(-0.32000000 0.32243577 0.00000000)
		(-0.30000000 0.32430742 0.00000000)
		(-0.28000000 0.32617907 0.00000000)
		(-0.26000000 0.32805072 0.00000000)
		(-0.24000000 0.32992237 0.00000000)
		(-0.22000000 0.33179403 0.00000000)
		(-0.20000000 0.33366568 0.00000000)
		(-0.18000000 0.33553733 0.00000000)
		(-0.16000000 0.33740898 0.00000000)
		(-0.14000000 0.33928063 0.00000000)
		(-0.12000000 0.34115229 0.00000000)
		(-0.10000000 0.34302394 0.00000000)
		(-0.08162011 0.34436768 0.00000000)
		(-0.06324022 0.34546060 0.00000000)
		(-0.04486034 0.34630269 0.00000000)
		(-0.02648045 0.34689396 0.00000000)
		(-0.00810056 0.34723440 0.00000000)
		(0.01027933 0.34732401 0.00000000)
		(0.02865922 0.34716280 0.00000000)
		(0.04703911 0.34675076 0.00000000)
		(0.06541899 0.34608790 0.00000000)
		(0.08379888 0.34517421 0.00000000)
		(0.10055866 0.34582996 0.00000000)
		(0.11731844 0.34705937 0.00000000)
		(0.13407821 0.34885784 0.00000000)
		(0.15083799 0.35121870 0.00000000)
		(0.16759777 0.35413315 0.00000000)
		(0.18435754 0.35759035 0.00000000)
		(0.20111732 0.36157744 0.00000000)
		(0.21787709 0.36607959 0.00000000)
		(0.23463687 0.37108003 0.00000000)
		(0.25139665 0.37656017 0.00000000)
		(0.26815642 0.38249962 0.00000000)
		(0.28491620 0.38887627 0.00000000)
		(0.30167598 0.39566639 0.00000000)
		(0.31843575 0.40284473 0.00000000)
		(0.33519553 0.41038457 0.00000000)
		(0.35195531 0.41825785 0.00000000)
		(0.36871508 0.42643529 0.00000000)
		(0.38547486 0.43488646 0.00000000)
		(0.40223464 0.44357990 0.00000000)
		(0.41899441 0.45248328 0.00000000)
		(0.43575419 0.46156345 0.00000000)
		(0.45251397 0.47078665 0.00000000)
		(0.46927374 0.48011855 0.00000000)
		(0.48603352 0.48952442 0.00000000)
		(0.50279330 0.49896927 0.00000000)
		(0.51955307 0.50841795 0.00000000)
		(0.53631285 0.51783531 0.00000000)
		(0.55307263 0.52718631 0.00000000)
		(0.56983240 0.53643616 0.00000000)
		(0.58659218 0.54555043 0.00000000)
		(0.60335196 0.55449521 0.00000000)
		(0.62011173 0.56323722 0.00000000)
		(0.63687151 0.57174394 0.00000000)
		(0.65363128 0.57998370 0.00000000)
		(0.67039106 0.58792585 0.00000000)
		(0.68715084 0.59554085 0.00000000)
		(0.70391061 0.60280035 0.00000000)
		(0.72067039 0.60967734 0.00000000)
		(0.73743017 0.61614624 0.00000000)
		(0.75418994 0.62218297 0.00000000)
		(0.77094972 0.62776507 0.00000000)
		(0.78770950 0.63287178 0.00000000)
		(0.80446927 0.63748409 0.00000000)
		(0.82122905 0.64158483 0.00000000)
		(0.83798883 0.64515876 0.00000000)
		(0.85474860 0.64819257 0.00000000)
		(0.87150838 0.65067498 0.00000000)
		(0.88826816 0.65259674 0.00000000)
		(0.90502793 0.65395071 0.00000000)
		(0.92178771 0.65473185 0.00000000)
		(0.93854749 0.65493725 0.00000000)
		(0.95530726 0.65456615 0.00000000)
		(0.97206704 0.65361993 0.00000000)
		(0.98882682 0.65210211 0.00000000)
		(1.00558659 0.65001833 0.00000000)
		(1.02234637 0.64737636 0.00000000)
		(1.03910615 0.64418602 0.00000000)
		(1.05586592 0.64045918 0.00000000)
		(1.07262570 0.63620971 0.00000000)
		(1.08938547 0.63145342 0.00000000)
		(1.10614525 0.62620801 0.00000000)
		(1.12290503 0.62049300 0.00000000)
		(1.13966480 0.61432965 0.00000000)
		(1.15642458 0.60774089 0.00000000)
		(1.17318436 0.60075124 0.00000000)
		(1.18994413 0.59338671 0.00000000)
		(1.20670391 0.58567469 0.00000000)
		(1.22346369 0.57764390 0.00000000)
		(1.24022346 0.56932420 0.00000000)
		(1.25698324 0.56074655 0.00000000)
		(1.27374302 0.55194288 0.00000000)
		(1.29050279 0.54294593 0.00000000)
		(1.30726257 0.53378918 0.00000000)
		(1.32402235 0.52450671 0.00000000)
		(1.34078212 0.51513306 0.00000000)
		(1.35754190 0.50570309 0.00000000)
		(1.37430168 0.49625191 0.00000000)
		(1.39106145 0.48681467 0.00000000)
		(1.40782123 0.47742649 0.00000000)
		(1.42458101 0.46812230 0.00000000)
		(1.44134078 0.45893673 0.00000000)
		(1.45810056 0.44990395 0.00000000)
		(1.47486034 0.44105757 0.00000000)
		(1.49162011 0.43243051 0.00000000)
		(1.50837989 0.42405486 0.00000000)
		(1.52513966 0.41596180 0.00000000)
		(1.54189944 0.40818143 0.00000000)
		(1.55865922 0.40074271 0.00000000)
		(1.57541899 0.39367331 0.00000000)
		(1.59217877 0.38699954 0.00000000)
		(1.60893855 0.38074623 0.00000000)
		(1.62569832 0.37493665 0.00000000)
		(1.64245810 0.36959241 0.00000000)
		(1.65921788 0.36473340 0.00000000)
		(1.67597765 0.36037770 0.00000000)
		(1.69273743 0.35654152 0.00000000)
		(1.70949721 0.35323913 0.00000000)
		(1.72625698 0.35048282 0.00000000)
		(1.74301676 0.34828284 0.00000000)
		(1.75977654 0.34664738 0.00000000)
		(1.77653631 0.34558253 0.00000000)
		(1.79329609 0.34509225 0.00000000)
		(1.81005587 0.34517835 0.00000000)
		(1.82681564 0.34584053 0.00000000)
		(1.84357542 0.34707632 0.00000000)
		(1.86033520 0.34888112 0.00000000)
		(1.87709497 0.35124821 0.00000000)
		(1.89385475 0.35416878 0.00000000)
		(1.91061453 0.35763198 0.00000000)
		(1.92737430 0.36162491 0.00000000)
		(1.94413408 0.36613271 0.00000000)
		(1.96089385 0.37113862 0.00000000)
		(1.97765363 0.37662401 0.00000000)
		(1.99441341 0.38256846 0.00000000)
		(2.01117318 0.38894986 0.00000000)
		(2.02793296 0.39574446 0.00000000)
		(2.04469274 0.40292698 0.00000000)
		(2.06145251 0.41047070 0.00000000)
		(2.07821229 0.41834755 0.00000000)
		(2.09497207 0.42652822 0.00000000)
		(2.11173184 0.43498226 0.00000000)
		(2.12849162 0.44367823 0.00000000)
		(2.14525140 0.45258376 0.00000000)
		(2.16201117 0.46166573 0.00000000)
		(2.17877095 0.47089033 0.00000000)
		(2.19553073 0.48022324 0.00000000)
		(2.21229050 0.48962974 0.00000000)
		(2.22905028 0.49907483 0.00000000)
		(2.24581006 0.50852336 0.00000000)
		(2.26256983 0.51794017 0.00000000)
		(2.27932961 0.52729023 0.00000000)
		(2.29608939 0.53653875 0.00000000)
		(2.31284916 0.54565131 0.00000000)
		(2.32960894 0.55459401 0.00000000)
		(2.34636872 0.56333358 0.00000000)
		(2.36312849 0.57183748 0.00000000)
		(2.37988827 0.58007409 0.00000000)
		(2.39664804 0.58801275 0.00000000)
		(2.41340782 0.59562393 0.00000000)
		(2.43016760 0.60287931 0.00000000)
		(2.44692737 0.60975188 0.00000000)
		(2.46368715 0.61621608 0.00000000)
		(2.48044693 0.62224786 0.00000000)
		(2.49720670 0.62782476 0.00000000)
		(2.51396648 0.63292605 0.00000000)
		(2.53072626 0.63753274 0.00000000)