/*--------------------------------*- C++ -*----------------------------------*\\
/*--------------------------------*- C++ -*----------------------------------*\\
| =========                 |                                                 |
| \\\\      /  F ield         | OpenFOAM: The Open Source CFD Toolbox           |
|  \\\\    /   O peration     | Version:  v2012                                 |
|   \\\\  /    A nd           | Website:  www.openfoam.com                      |
|    \\\\/     M anipulation  |                                                 |
\\*---------------------------------------------------------------------------*/
FoamFile
{
    version     2.0;
    format      ascii;
    class       dictionary;
    object      blockMeshDict;
}
// * * * * * * * * * * * * * * * * * * * * * * * * * * * * * * * * * * * * * //

scale   0.01;

xmin -1;
xmax 5;
ymin 0;
ymax 0.5;
zmin 0;
zmax 0.1;

vertices
(
    (-1.00000000 -0.09953139 0.00000000)
    (4.00000000 0.22682830 0.00000000)
    (4.00000000 0.72682830 0.00000000)
    (-1.00000000 0.40046861 0.00000000)
    (-1.00000000 -0.09953139 0.10000000)
    (4.00000000 0.22682830 0.10000000)
    (4.00000000 0.72682830 0.10000000)
    (-1.00000000 0.40046861 0.10000000)
);

blocks
(
    hex (0 1 2 3 4 5 6 7) (200 20 1) simpleGrading (1 1 1)
);

edges
(
	polyLine 0 1
	(
		(-1.00000000 -0.09953139 0.00000000)
		(-0.98000000 -0.09953139 0.00000000)
		(-0.96000000 -0.09953139 0.00000000)
		(-0.94000000 -0.09953139 0.00000000)
		(-0.92000000 -0.09953139 0.00000000)
		(-0.90000000 -0.09953139 0.00000000)
		(-0.88000000 -0.09953139 0.00000000)
		(-0.86000000 -0.09953139 0.00000000)
		(-0.84000000 -0.09953139 0.00000000)
		(-0.82000000 -0.09953139 0.00000000)
		(-0.80000000 -0.09953139 0.00000000)
		(-0.78000000 -0.09953139 0.00000000)
		(-0.76000000 -0.09953139 0.00000000)
		(-0.74000000 -0.09953139 0.00000000)
		(-0.72000000 -0.09953139 0.00000000)
		(-0.70000000 -0.09953139 0.00000000)
		(-0.68000000 -0.09953139 0.00000000)
		(-0.66000000 -0.09953139 0.00000000)
		(-0.64000000 -0.09953139 0.00000000)
		(-0.62000000 -0.09953139 0.00000000)
		(-0.60000000 -0.09953139 0.00000000)
		(-0.58000000 -0.09953139 0.00000000)
		(-0.56000000 -0.09953139 0.00000000)
		(-0.54000000 -0.09953139 0.00000000)
		(-0.52000000 -0.09953139 0.00000000)
		(-0.50000000 -0.09953139 0.00000000)
		(-0.48000000 -0.09953139 0.00000000)
		(-0.46000000 -0.09953139 0.00000000)
		(-0.44000000 -0.09953139 0.00000000)
		(-0.42000000 -0.09953139 0.00000000)
		(-0.40000000 -0.09953139 0.00000000)
		(-0.38000000 -0.09953139 0.00000000)
		(-0.36000000 -0.09953139 0.00000000)
		(-0.34000000 -0.09953139 0.00000000)
		(-0.32000000 -0.09953139 0.00000000)
		(-0.30000000 -0.09953139 0.00000000)
		(-0.28000000 -0.09953139 0.00000000)
		(-0.26000000 -0.09953139 0.00000000)
		(-0.24000000 -0.09953139 0.00000000)
		(-0.22000000 -0.09953139 0.00000000)
		(-0.20000000 -0.09953139 0.00000000)
		(-0.18000000 -0.09953139 0.00000000)
		(-0.16000000 -0.09953139 0.00000000)
		(-0.14000000 -0.09953139 0.00000000)
		(-0.12000000 -0.09953139 0.00000000)
		(-0.10000000 -0.09953139 0.00000000)
		(-0.08162011 -0.09857423 0.00000000)
		(-0.06324022 -0.09570276 0.00000000)
		(-0.04486034 -0.09091697 0.00000000)
		(-0.02648045 -0.08421687 0.00000000)
		(-0.00810056 -0.07560246 0.00000000)
		(0.01027933 -0.06507373 0.00000000)
		(0.02865922 -0.05263069 0.00000000)
		(0.04703911 -0.03827333 0.00000000)
		(0.06541899 -0.02200166 0.00000000)
		(0.08379888 -0.00381567 0.00000000)
		(0.10055866 0.01588394 0.00000000)
		(0.11731844 0.03548486 0.00000000)
		(0.13407821 0.05486533 0.00000000)
		(0.15083799 0.07390493 0.00000000)
		(0.16759777 0.09248536 0.00000000)
		(0.18435754 0.11049121 0.00000000)
		(0.20111732 0.12781059 0.00000000)
		(0.21787709 0.14433591 0.00000000)
		(0.23463687 0.15996449 0.00000000)
		(0.25139665 0.17459925 0.00000000)
		(0.26815642 0.18814925 0.00000000)
		(0.28491620 0.20053031 0.00000000)
		(0.30167598 0.21166552 0.00000000)
		(0.31843575 0.22148568 0.00000000)
		(0.33519553 0.22992980 0.00000000)
		(0.35195531 0.23694540 0.00000000)
		(0.36871508 0.24248890 0.00000000)
		(0.38547486 0.24652587 0.00000000)
		(0.40223464 0.24903121 0.00000000)
		(0.41899441 0.24998937 0.00000000)
		(0.43575419 0.24939439 0.00000000)
		(0.45251397 0.24724996 0.00000000)
		(0.46927374 0.24356942 0.00000000)
		(0.48603352 0.23837563 0.00000000)
		(0.50279330 0.23170085 0.00000000)
		(0.51955307 0.22358655 0.00000000)
		(0.53631285 0.21408315 0.00000000)
		(0.55307263 0.20324970 0.00000000)
		(0.56983240 0.19115348 0.00000000)
		(0.58659218 0.17786967 0.00000000)
		(0.60335196 0.16348078 0.00000000)
		(0.62011173 0.14807622 0.00000000)
		(0.63687151 0.13175169 0.00000000)
		(0.65363128 0.11460861 0.00000000)
		(0.67039106 0.09675348 0.00000000)
		(0.68715084 0.07829724 0.00000000)
		(0.70391061 0.05935456 0.00000000)
		(0.72067039 0.04004312 0.00000000)
		(0.73743017 0.02048290 0.00000000)
		(0.75418994 0.00079542 0.00000000)
		(0.77094972 -0.01889701 0.00000000)
		(0.78770950 -0.03847202 0.00000000)
		(0.80446927 -0.05780802 0.00000000)
		(0.82122905 -0.07678487 0.00000000)
		(0.83798883 -0.09528467 0.00000000)
		(0.85474860 -0.11319248 0.00000000)
		(0.87150838 -0.13039704 0.00000000)
		(0.88826816 -0.14679148 0.00000000)
		(0.90502793 -0.16227392 0.00000000)
		(0.92178771 -0.17674818 0.00000000)
		(0.93854749 -0.19012435 0.00000000)
		(0.95530726 -0.20231930 0.00000000)
		(0.97206704 -0.21325728 0.00000000)
		(0.98882682 -0.22287033 0.00000000)
		(1.00558659 -0.23109873 0.00000000)
		(1.02234637 -0.23789135 0.00000000)
		(1.03910615 -0.24320600 0.00000000)
		(1.05586592 -0.24700965 0.00000000)
		(1.07262570 -0.24927868 0.00000000)
		(1.08938547 -0.24999898 0.00000000)
		(1.10614525 -0.24916608 0.00000000)
		(1.12290503 -0.24678516 0.00000000)
		(1.13966480 -0.24287101 0.00000000)
		(1.15642458 -0.23744795 0.00000000)
		(1.17318436 -0.23054966 0.00000000)
		(1.18994413 -0.22221901 0.00000000)
		(1.20670391 -0.21250776 0.00000000)
		(1.22346369 -0.20147623 0.00000000)
		(1.24022346 -0.18919297 0.00000000)
		(1.25698324 -0.17573428 0.00000000)
		(1.27374302 -0.16118379 0.00000000)
		(1.29050279 -0.14563189 0.00000000)
		(1.30726257 -0.12917521 0.00000000)
		(1.32402235 -0.11191599 0.00000000)
		(1.34078212 -0.09396145 0.00000000)
		(1.35754190 -0.07542315 0.00000000)
		(1.37430168 -0.05641626 0.00000000)
		(1.39106145 -0.03705886 0.00000000)
		(1.40782123 -0.01747123 0.00000000)
		(1.42458101 0.00222496 0.00000000)
		(1.44134078 0.02190731 0.00000000)
		(1.45810056 0.04145357 0.00000000)
		(1.47486034 0.06074228 0.00000000)
		(1.49162011 0.07965360 0.00000000)
		(1.50837989 0.09807006 0.00000000)
		(1.52513966 0.11587722 0.00000000)
		(1.54189944 0.13296446 0.00000000)
		(1.55865922 0.14922562 0.00000000)
		(1.57541899 0.16455966 0.00000000)
		(1.59217877 0.17887132 0.00000000)
		(1.60893855 0.19207169 0.00000000)
		(1.62569832 0.20407876 0.00000000)
		(1.64245810 0.21481791 0.00000000)
		(1.65921788 0.22422245 0.00000000)
		(1.67597765 0.23223393 0.00000000)
		(1.69273743 0.23880258 0.00000000)
		(1.70949721 0.24388759 0.00000000)
		(1.72625698 0.24745738 0.00000000)
		(1.74301676 0.24948975 0.00000000)
		(1.75977654 0.24997210 0.00000000)
		(1.77653631 0.24890141 0.00000000)
		(1.79329609 0.24628434 0.00000000)
		(1.81005587 0.24213715 0.00000000)
		(1.82681564 0.23648561 0.00000000)
		(1.84357542 0.22936482 0.00000000)
		(1.86033520 0.22081904 0.00000000)
		(1.87709497 0.21090134 0.00000000)
		(1.89385475 0.19967335 0.00000000)
		(1.91061453 0.18720483 0.00000000)
		(1.92737430 0.17357324 0.00000000)
		(1.94413408 0.15886327 0.00000000)
		(1.96089385 0.14316631 0.00000000)
		(1.97765363 0.12657988 0.00000000)
		(1.99441341 0.10920704 0.00000000)
		(2.01117318 0.09115571 0.00000000)
		(2.02793296 0.07253805 0.00000000)
		(2.04469274 0.05346972 0.00000000)
		(2.06145251 0.03406920 0.00000000)
		(2.07821229 0.01445701 0.00000000)
		(2.09497207 -0.00524500 0.00000000)
		(2.11173184 -0.02491443 0.00000000)
		(2.12849162 -0.04442906 0.00000000)
		(2.14525140 -0.06366766 0.00000000)
		(2.16201117 -0.08251071 0.00000000)
		(2.17877095 -0.10084114 0.00000000)
		(2.19553073 -0.11854506 0.00000000)
		(2.21229050 -0.13551247 0.00000000)
		(2.22905028 -0.15163798 0.00000000)
		(2.24581006 -0.16682138 0.00000000)
		(2.26256983 -0.18096836 0.00000000)
		(2.27932961 -0.19399101 0.00000000)
		(2.29608939 -0.20580842 0.00000000)
		(2.31284916 -0.21634719 0.00000000)
		(2.32960894 -0.22554183 0.00000000)
		(2.34636872 -0.23333523 0.00000000)
		(2.36312849 -0.23967895 0.00000000)
		(2.37988827 -0.24453359 0.00000000)
		(2.39664804 -0.24786899 0.00000000)
		(2.41340782 -0.24966442 0.00000000)
		(2.43016760 -0.24990873 0.00000000)
		(2.44692737 -0.24860040 0.00000000)
		(2.46368715 -0.24574757 0.00000000)
		(2.48044693 -0.24136795 0.00000000)
		(2.49720670 -0.23548875 0.00000000)
		(2.51396648 -0.22814651 0.00000000)
		(2.53072626 -0.21938683 0.00000000)
		(2.54748603 -0.20926414 0.00000000)
		(2.56424581 -0.19784133 0.00000000)
		(2.58100559 -0.18518937 0.00000000)
		(2.59776536 -0.17138686 0.00000000)
		(2.61452514 -0.15651956 0.00000000)
		(2.63128492 -0.14067983 0.00000000)
		(2.64804469 -0.12396608 0.00000000)
		(2.66480447 -0.10648215 0.00000000)
		(2.68156425 -0.08833666 0.00000000)
		(2.69832402 -0.06964236 0.00000000)
		(2.71508380 -0.05051538 0.00000000)
		(2.73184358 -0.03107456 0.00000000)
		(2.74860335 -0.01144068 0.00000000)
		(2.76536313 0.00826428 0.00000000)
		(2.78212291 0.02791790 0.00000000)
		(2.79888268 0.04739807 0.00000000)
		(2.81564246 0.06658376 0.00000000)
		(2.83240223 0.08535578 0.00000000)
		(2.84916201 0.10359750 0.00000000)
		(2.86592179 0.12119559 0.00000000)
		(2.88268156 0.13804071 0.00000000)
		(2.89944134 0.15402820 0.00000000)
		(2.91620112 0.16905875 0.00000000)
		(2.93296089 0.18303897 0.00000000)
		(2.95166480 0.19135894 0.00000000)
		(2.97036872 0.19880313 0.00000000)
		(2.98907263 0.20537153 0.00000000)
		(3.00777654 0.21106414 0.00000000)
		(3.02648045 0.21588097 0.00000000)
		(3.04518436 0.21982201 0.00000000)
		(3.06388827 0.22288726 0.00000000)
		(3.08259218 0.22507673 0.00000000)
		(3.10129609 0.22639041 0.00000000)
		(3.12000000 0.22682830 0.00000000)
		(3.14000000 0.22682830 0.00000000)
		(3.16000000 0.22682830 0.00000000)
		(3.18000000 0.22682830 0.00000000)
		(3.20000000 0.22682830 0.00000000)
		(3.22000000 0.22682830 0.00000000)
		(3.24000000 0.22682830 0.00000000)
		(3.26000000 0.22682830 0.00000000)
		(3.28000000 0.22682830 0.00000000)
		(3.30000000 0.22682830 0.00000000)
		(3.32000000 0.22682830 0.00000000)
		(3.34000000 0.22682830 0.00000000)
		(3.36000000 0.22682830 0.00000000)
		(3.38000000 0.22682830 0.00000000)
		(3.40000000 0.22682830 0.00000000)
		(3.42000000 0.22682830 0.00000000)
		(3.44000000 0.22682830 0.00000000)
		(3.46000000 0.22682830 0.00000000)
		(3.48000000 0.22682830 0.00000000)
		(3.50000000 0.22682830 0.00000000)
		(3.52000000 0.22682830 0.00000000)
		(3.54000000 0.22682830 0.00000000)
		(3.56000000 0.22682830 0.00000000)
		(3.58000000 0.22682830 0.00000000)
		(3.60000000 0.22682830 0.00000000)
		(3.62000000 0.22682830 0.00000000)
		(3.64000000 0.22682830 0.00000000)
		(3.66000000 0.22682830 0.00000000)
		(3.68000000 0.22682830 0.00000000)
		(3.70000000 0.22682830 0.00000000)
		(3.72000000 0.22682830 0.00000000)
		(3.74000000 0.22682830 0.00000000)
		(3.76000000 0.22682830 0.00000000)
		(3.78000000 0.22682830 0.00000000)
		(3.80000000 0.22682830 0.00000000)
		(3.82000000 0.22682830 0.00000000)
		(3.84000000 0.22682830 0.00000000)
		(3.86000000 0.22682830 0.00000000)
		(3.88000000 0.22682830 0.00000000)
		(3.90000000 0.22682830 0.00000000)
		(3.92000000 0.22682830 0.00000000)
		(3.94000000 0.22682830 0.00000000)
		(3.96000000 0.22682830 0.00000000)
		(3.98000000 0.22682830 0.00000000)
		(4.00000000 0.22682830 0.00000000)
	)
	polyLine 4 5
	(
		(-1.00000000 -0.09953139 0.10000000)
		(-0.98000000 -0.09953139 0.10000000)
		(-0.96000000 -0.09953139 0.10000000)
		(-0.94000000 -0.09953139 0.10000000)
		(-0.92000000 -0.09953139 0.10000000)
		(-0.90000000 -0.09953139 0.10000000)
		(-0.88000000 -0.09953139 0.10000000)
		(-0.86000000 -0.09953139 0.10000000)
		(-0.84000000 -0.09953139 0.10000000)
		(-0.82000000 -0.09953139 0.10000000)
		(-0.80000000 -0.09953139 0.10000000)
		(-0.78000000 -0.09953139 0.10000000)
		(-0.76000000 -0.09953139 0.10000000)
		(-0.74000000 -0.09953139 0.10000000)
		(-0.72000000 -0.09953139 0.10000000)
		(-0.70000000 -0.09953139 0.10000000)
		(-0.68000000 -0.09953139 0.10000000)
		(-0.66000000 -0.09953139 0.10000000)
		(-0.64000000 -0.09953139 0.10000000)
		(-0.62000000 -0.09953139 0.10000000)
		(-0.60000000 -0.09953139 0.10000000)
		(-0.58000000 -0.09953139 0.10000000)
		(-0.56000000 -0.09953139 0.10000000)
		(-0.54000000 -0.09953139 0.10000000)
		(-0.52000000 -0.09953139 0.10000000)
		(-0.50000000 -0.09953139 0.10000000)
		(-0.48000000 -0.09953139 0.10000000)
		(-0.46000000 -0.09953139 0.10000000)
		(-0.44000000 -0.09953139 0.10000000)
		(-0.42000000 -0.09953139 0.10000000)
		(-0.40000000 -0.09953139 0.10000000)
		(-0.38000000 -0.09953139 0.10000000)
		(-0.36000000 -0.09953139 0.10000000)
		(-0.34000000 -0.09953139 0.10000000)
		(-0.32000000 -0.09953139 0.10000000)
		(-0.30000000 -0.09953139 0.10000000)
		(-0.28000000 -0.09953139 0.10000000)
		(-0.26000000 -0.09953139 0.10000000)
		(-0.24000000 -0.09953139 0.10000000)
		(-0.22000000 -0.09953139 0.10000000)
		(-0.20000000 -0.09953139 0.10000000)
		(-0.18000000 -0.09953139 0.10000000)
		(-0.16000000 -0.09953139 0.10000000)
		(-0.14000000 -0.09953139 0.10000000)
		(-0.12000000 -0.09953139 0.10000000)
		(-0.10000000 -0.09953139 0.10000000)
		(-0.08162011 -0.09857423 0.10000000)
		(-0.06324022 -0.09570276 0.10000000)
		(-0.04486034 -0.09091697 0.10000000)
		(-0.02648045 -0.08421687 0.10000000)
		(-0.00810056 -0.07560246 0.10000000)
		(0.01027933 -0.06507373 0.10000000)
		(0.02865922 -0.05263069 0.10000000)
		(0.04703911 -0.03827333 0.10000000)
		(0.06541899 -0.02200166 0.10000000)
		(0.08379888 -0.00381567 0.10000000)
		(0.10055866 0.01588394 0.10000000)
		(0.11731844 0.03548486 0.10000000)
		(0.13407821 0.05486533 0.10000000)
		(0.15083799 0.07390493 0.10000000)
		(0.16759777 0.09248536 0.10000000)
		(0.18435754 0.11049121 0.10000000)
		(0.20111732 0.12781059 0.10000000)
		(0.21787709 0.14433591 0.10000000)
		(0.23463687 0.15996449 0.10000000)
		(0.25139665 0.17459925 0.10000000)
		(0.26815642 0.18814925 0.10000000)
		(0.28491620 0.20053031 0.10000000)
		(0.30167598 0.21166552 0.10000000)
		(0.31843575 0.22148568 0.10000000)
		(0.33519553 0.22992980 0.10000000)
		(0.35195531 0.23694540 0.10000000)
		(0.36871508 0.24248890 0.10000000)
		(0.38547486 0.24652587 0.10000000)
		(0.40223464 0.24903121 0.10000000)
		(0.41899441 0.24998937 0.10000000)
		(0.43575419 0.24939439 0.10000000)
		(0.45251397 0.24724996 0.10000000)
		(0.46927374 0.24356942 0.10000000)
		(0.48603352 0.23837563 0.10000000)
		(0.50279330 0.23170085 0.10000000)
		(0.51955307 0.22358655 0.10000000)
		(0.53631285 0.21408315 0.10000000)
		(0.55307263 0.20324970 0.10000000)
		(0.56983240 0.19115348 0.10000000)
		(0.58659218 0.17786967 0.10000000)
		(0.60335196 0.16348078 0.10000000)
		(0.62011173 0.14807622 0.10000000)
		(0.63687151 0.13175169 0.10000000)
		(0.65363128 0.11460861 0.10000000)
		(0.67039106 0.09675348 0.10000000)
		(0.68715084 0.07829724 0.10000000)
		(0.70391061 0.05935456 0.10000000)
		(0.72067039 0.04004312 0.10000000)
		(0.73743017 0.02048290 0.10000000)
		(0.75418994 0.00079542 0.10000000)
		(0.77094972 -0.01889701 0.10000000)
		(0.78770950 -0.03847202 0.10000000)
		(0.80446927 -0.05780802 0.10000000)
		(0.82122905 -0.07678487 0.10000000)
		(0.83798883 -0.09528467 0.10000000)
		(0.85474860 -0.11319248 0.10000000)
		(0.87150838 -0.13039704 0.10000000)
		(0.88826816 -0.14679148 0.10000000)
		(0.90502793 -0.16227392 0.10000000)
		(0.92178771 -0.17674818 0.10000000)
		(0.93854749 -0.19012435 0.10000000)
		(0.95530726 -0.20231930 0.10000000)
		(0.97206704 -0.21325728 0.10000000)
		(0.98882682 -0.22287033 0.10000000)
		(1.00558659 -0.23109873 0.10000000)
		(1.02234637 -0.23789135 0.10000000)
		(1.03910615 -0.24320600 0.10000000)
		(1.05586592 -0.24700965 0.10000000)
		(1.07262570 -0.24927868 0.10000000)
		(1.08938547 -0.24999898 0.10000000)
		(1.10614525 -0.24916608 0.10000000)
		(1.12290503 -0.24678516 0.10000000)
		(1.13966480 -0.24287101 0.10000000)
		(1.15642458 -0.23744795 0.10000000)
		(1.17318436 -0.23054966 0.10000000)
		(1.18994413 -0.22221901 0.10000000)
		(1.20670391 -0.21250776 0.10000000)
		(1.22346369 -0.20147623 0.10000000)
		(1.24022346 -0.18919297 0.10000000)
		(1.25698324 -0.17573428 0.10000000)
		(1.27374302 -0.16118379 0.10000000)
		(1.29050279 -0.14563189 0.10000000)
		(1.30726257 -0.12917521 0.10000000)
		(1.32402235 -0.11191599 0.10000000)
		(1.34078212 -0.09396145 0.10000000)
		(1.35754190 -0.07542315 0.10000000)
		(1.37430168 -0.05641626 0.10000000)
		(1.39106145 -0.03705886 0.10000000)
		(1.40782123 -0.01747123 0.10000000)
		(1.42458101 0.00222496 0.10000000)
		(1.44134078 0.02190731 0.10000000)
		(1.45810056 0.04145357 0.10000000)
		(1.47486034 0.06074228 0.10000000)
		(1.49162011 0.07965360 0.10000000)
		(1.50837989 0.09807006 0.10000000)
		(1.52513966 0.11587722 0.10000000)
		(1.54189944 0.13296446 0.10000000)
		(1.55865922 0.14922562 0.10000000)
		(1.57541899 0.16455966 0.10000000)
		(1.59217877 0.17887132 0.10000000)
		(1.60893855 0.19207169 0.10000000)
		(1.62569832 0.20407876 0.10000000)
		(1.64245810 0.21481791 0.10000000)
		(1.65921788 0.22422245 0.10000000)
		(1.67597765 0.23223393 0.10000000)
		(1.69273743 0.23880258 0.10000000)
		(1.70949721 0.24388759 0.10000000)
		(1.72625698 0.24745738 0.10000000)
		(1.74301676 0.24948975 0.10000000)
		(1.75977654 0.24997210 0.10000000)
		(1.77653631 0.24890141 0.10000000)
		(1.79329609 0.24628434 0.10000000)
		(1.81005587 0.24213715 0.10000000)
		(1.82681564 0.23648561 0.10000000)
		(1.84357542 0.22936482 0.10000000)
		(1.86033520 0.22081904 0.10000000)
		(1.87709497 0.21090134 0.10000000)
		(1.89385475 0.19967335 0.10000000)
		(1.91061453 0.18720483 0.10000000)
		(1.92737430 0.17357324 0.10000000)
		(1.94413408 0.15886327 0.10000000)
		(1.96089385 0.14316631 0.10000000)
		(1.97765363 0.12657988 0.10000000)
		(1.99441341 0.10920704 0.10000000)
		(2.01117318 0.09115571 0.10000000)
		(2.02793296 0.07253805 0.10000000)
		(2.04469274 0.05346972 0.10000000)
		(2.06145251 0.03406920 0.10000000)
		(2.07821229 0.01445701 0.10000000)
		(2.09497207 -0.00524500 0.10000000)
		(2.11173184 -0.02491443 0.10000000)
		(2.12849162 -0.04442906 0.10000000)
		(2.14525140 -0.06366766 0.10000000)
		(2.16201117 -0.08251071 0.10000000)
		(2.17877095 -0.10084114 0.10000000)
		(2.19553073 -0.11854506 0.10000000)
		(2.21229050 -0.13551247 0.10000000)
		(2.22905028 -0.15163798 0.10000000)
		(2.24581006 -0.16682138 0.10000000)
		(2.26256983 -0.18096836 0.10000000)
		(2.27932961 -0.19399101 0.10000000)
		(2.29608939 -0.20580842 0.10000000)
		(2.31284916 -0.21634719 0.10000000)
		(2.32960894 -0.22554183 0.10000000)
		(2.34636872 -0.23333523 0.10000000)
		(2.36312849 -0.23967895 0.10000000)
		(2.37988827 -0.24453359 0.10000000)
		(2.39664804 -0.24786899 0.10000000)
		(2.41340782 -0.24966442 0.10000000)
		(2.43016760 -0.24990873 0.10000000)
		(2.44692737 -0.24860040 0.10000000)
		(2.46368715 -0.24574757 0.10000000)
		(2.48044693 -0.24136795 0.10000000)
		(2.49720670 -0.23548875 0.10000000)
		(2.51396648 -0.22814651 0.10000000)
		(2.53072626 -0.21938683 0.10000000)
		(2.54748603 -0.20926414 0.10000000)
		(2.56424581 -0.19784133 0.10000000)
		(2.58100559 -0.18518937 0.10000000)
		(2.59776536 -0.17138686 0.10000000)
		(2.61452514 -0.15651956 0.10000000)
		(2.63128492 -0.14067983 0.10000000)
		(2.64804469 -0.12396608 0.10000000)
		(2.66480447 -0.10648215 0.10000000)
		(2.68156425 -0.08833666 0.10000000)
		(2.69832402 -0.06964236 0.10000000)
		(2.71508380 -0.05051538 0.10000000)
		(2.73184358 -0.03107456 0.10000000)
		(2.74860335 -0.01144068 0.10000000)
		(2.76536313 0.00826428 0.10000000)
		(2.78212291 0.02791790 0.10000000)
		(2.79888268 0.04739807 0.10000000)
		(2.81564246 0.06658376 0.10000000)
		(2.83240223 0.08535578 0.10000000)
		(2.84916201 0.10359750 0.10000000)
		(2.86592179 0.12119559 0.10000000)
		(2.88268156 0.13804071 0.10000000)
		(2.89944134 0.15402820 0.10000000)
		(2.91620112 0.16905875 0.10000000)
		(2.93296089 0.18303897 0.10000000)
		(2.95166480 0.19135894 0.10000000)
		(2.97036872 0.19880313 0.10000000)
		(2.98907263 0.20537153 0.10000000)
		(3.00777654 0.21106414 0.10000000)
		(3.02648045 0.21588097 0.10000000)
		(3.04518436 0.21982201 0.10000000)
		(3.06388827 0.22288726 0.10000000)
		(3.08259218 0.22507673 0.10000000)
		(3.10129609 0.22639041 0.10000000)
		(3.12000000 0.22682830 0.10000000)
		(3.14000000 0.22682830 0.10000000)
		(3.16000000 0.22682830 0.10000000)
		(3.18000000 0.22682830 0.10000000)
		(3.20000000 0.22682830 0.10000000)
		(3.22000000 0.22682830 0.10000000)
		(3.24000000 0.22682830 0.10000000)
		(3.26000000 0.22682830 0.10000000)
		(3.28000000 0.22682830 0.10000000)
		(3.30000000 0.22682830 0.10000000)
		(3.32000000 0.22682830 0.10000000)
		(3.34000000 0.22682830 0.10000000)
		(3.36000000 0.22682830 0.10000000)
		(3.38000000 0.22682830 0.10000000)
		(3.40000000 0.22682830 0.10000000)
		(3.42000000 0.22682830 0.10000000)
		(3.44000000 0.22682830 0.10000000)
		(3.46000000 0.22682830 0.10000000)
		(3.48000000 0.22682830 0.10000000)
		(3.50000000 0.22682830 0.10000000)
		(3.52000000 0.22682830 0.10000000)
		(3.54000000 0.22682830 0.10000000)
		(3.56000000 0.22682830 0.10000000)
		(3.58000000 0.22682830 0.10000000)
		(3.60000000 0.22682830 0.10000000)
		(3.62000000 0.22682830 0.10000000)
		(3.64000000 0.22682830 0.10000000)
		(3.66000000 0.22682830 0.10000000)
		(3.68000000 0.22682830 0.10000000)
		(3.70000000 0.22682830 0.10000000)
		(3.72000000 0.22682830 0.10000000)
		(3.74000000 0.22682830 0.10000000)
		(3.76000000 0.22682830 0.10000000)
		(3.78000000 0.22682830 0.10000000)
		(3.80000000 0.22682830 0.10000000)
		(3.82000000 0.22682830 0.10000000)
		(3.84000000 0.22682830 0.10000000)
		(3.86000000 0.22682830 0.10000000)
		(3.88000000 0.22682830 0.10000000)
		(3.90000000 0.22682830 0.10000000)
		(3.92000000 0.22682830 0.10000000)
		(3.94000000 0.22682830 0.10000000)
		(3.96000000 0.22682830 0.10000000)
		(3.98000000 0.22682830 0.10000000)
		(4.00000000 0.22682830 0.10000000)
	)
	polyLine 3 2
	(
		(-1.00000000 0.40046861 0.00000000)
		(-0.98000000 0.39912401 0.00000000)
		(-0.96000000 0.39777940 0.00000000)
		(-0.94000000 0.39643480 0.00000000)
		(-0.92000000 0.39509019 0.00000000)
		(-0.90000000 0.39374558 0.00000000)
		(-0.88000000 0.39240098 0.00000000)
		(-0.86000000 0.39105637 0.00000000)
		(-0.84000000 0.38971177 0.00000000)
		(-0.82000000 0.38836716 0.00000000)
		(-0.80000000 0.38702255 0.00000000)
		(-0.78000000 0.38567795 0.00000000)
		(-0.76000000 0.38433334 0.00000000)
		(-0.74000000 0.38298874 0.00000000)
		(-0.72000000 0.38164413 0.00000000)
		(-0.70000000 0.38029953 0.00000000)
		(-0.68000000 0.37895492 0.00000000)
		(-0.66000000 0.37761031 0.00000000)
		(-0.64000000 0.37626571 0.00000000)
		(-0.62000000 0.37492110 0.00000000)
		(-0.60000000 0.37357650 0.00000000)
		(-0.58000000 0.37223189 0.00000000)
		(-0.56000000 0.37088728 0.00000000)
		(-0.54000000 0.36954268 0.00000000)
		(-0.52000000 0.36819807 0.00000000)
		(-0.50000000 0.36685347 0.00000000)
		(-0.48000000 0.36550886 0.00000000)
		(-0.46000000 0.36416426 0.00000000)
		(-0.44000000 0.36281965 0.00000000)
		(-0.42000000 0.36147504 0.00000000)
		(-0.40000000 0.36013044 0.00000000)
		(-0.38000000 0.35878583 0.00000000)
		(-0.36000000 0.35744123 0.00000000)
		(-0.34000000 0.35609662 0.00000000)
		(-0.32000000 0.35475201 0.00000000)
		(-0.30000000 0.35340741 0.00000000)
		(-0.28000000 0.35206280 0.00000000)
		(-0.26000000 0.35071820 0.00000000)
		(-0.24000000 0.34937359 0.00000000)
		(-0.22000000 0.34802898 0.00000000)
		(-0.20000000 0.34668438 0.00000000)
		(-0.18000000 0.34533977 0.00000000)
		(-0.16000000 0.34399517 0.00000000)
		(-0.14000000 0.34265056 0.00000000)
		(-0.12000000 0.34130596 0.00000000)
		(-0.10000000 0.33996135 0.00000000)
		(-0.08162011 0.33795661 0.00000000)
		(-0.06324022 0.33981286 0.00000000)
		(-0.04486034 0.34553010 0.00000000)
		(-0.02648045 0.35510834 0.00000000)
		(-0.00810056 0.36854756 0.00000000)
		(0.01027933 0.38584777 0.00000000)
		(0.02865922 0.40700897 0.00000000)
		(0.04703911 0.43203116 0.00000000)
		(0.06541899 0.46091434 0.00000000)
		(0.08379888 0.49365851 0.00000000)
		(0.10055866 0.52639845 0.00000000)
		(0.11731844 0.55897439 0.00000000)
		(0.13407821 0.59118392 0.00000000)
		(0.15083799 0.62282695 0.00000000)
		(0.16759777 0.65370687 0.00000000)
		(0.18435754 0.68363185 0.00000000)
		(0.20111732 0.71241595 0.00000000)
		(0.21787709 0.73988035 0.00000000)
		(0.23463687 0.76585441 0.00000000)
		(0.25139665 0.79017677 0.00000000)
		(0.26815642 0.81269632 0.00000000)
		(0.28491620 0.83327314 0.00000000)
		(0.30167598 0.85177939 0.00000000)
		(0.31843575 0.86810010 0.00000000)
		(0.33519553 0.88213387 0.00000000)
		(0.35195531 0.89379352 0.00000000)
		(0.36871508 0.90300659 0.00000000)
		(0.38547486 0.90971586 0.00000000)
		(0.40223464 0.91387964 0.00000000)
		(0.41899441 0.91547206 0.00000000)
		(0.43575419 0.91448322 0.00000000)
		(0.45251397 0.91091928 0.00000000)
		(0.46927374 0.90480237 0.00000000)
		(0.48603352 0.89617049 0.00000000)
		(0.50279330 0.88507729 0.00000000)
		(0.51955307 0.87159166 0.00000000)
		(0.53631285 0.85579740 0.00000000)
		(0.55307263 0.83779264 0.00000000)
		(0.56983240 0.81768923 0.00000000)
		(0.58659218 0.79561208 0.00000000)
		(0.60335196 0.77169835 0.00000000)
		(0.62011173 0.74609660 0.00000000)
		(0.63687151 0.71896589 0.00000000)
		(0.65363128 0.69047479 0.00000000)
		(0.67039106 0.66080031 0.00000000)
		(0.68715084 0.63012680 0.00000000)
		(0.70391061 0.59864484 0.00000000)
		(0.72067039 0.56655002 0.00000000)
		(0.73743017 0.53404173 0.00000000)
		(0.75418994 0.50132195 0.00000000)
		(0.77094972 0.46859395 0.00000000)
		(0.78770950 0.43606108 0.00000000)
		(0.80446927 0.40392544 0.00000000)
		(0.82122905 0.37238670 0.00000000)
		(0.83798883 0.34164080 0.00000000)
		(0.85474860 0.31187876 0.00000000)
		(0.87150838 0.28328547 0.00000000)
		(0.88826816 0.25603860 0.00000000)
		(0.90502793 0.23030741 0.00000000)
		(0.92178771 0.20625178 0.00000000)
		(0.93854749 0.18402115 0.00000000)
		(0.95530726 0.16375364 0.00000000)
		(0.97206704 0.14557517 0.00000000)
		(0.98882682 0.12959867 0.00000000)
		(1.00558659 0.11592341 0.00000000)
		(1.02234637 0.10463435 0.00000000)
		(1.03910615 0.09580163 0.00000000)
		(1.05586592 0.08948011 0.00000000)
		(1.07262570 0.08570909 0.00000000)
		(1.08938547 0.08451197 0.00000000)
		(1.10614525 0.08589621 0.00000000)
		(1.12290503 0.08985320 0.00000000)
		(1.13966480 0.09635836 0.00000000)
		(1.15642458 0.10537127 0.00000000)
		(1.17318436 0.11683594 0.00000000)
		(1.18994413 0.13068113 0.00000000)
		(1.20670391 0.14682084 0.00000000)
		(1.22346369 0.16515479 0.00000000)
		(1.24022346 0.18556907 0.00000000)
		(1.25698324 0.20793685 0.00000000)
		(1.27374302 0.23211916 0.00000000)
		(1.29050279 0.25796578 0.00000000)
		(1.30726257 0.28531610 0.00000000)
		(1.32402235 0.31400022 0.00000000)
		(1.34078212 0.34383992 0.00000000)
		(1.35754190 0.37464982 0.00000000)
		(1.37430168 0.40623849 0.00000000)
		(1.39106145 0.43840969 0.00000000)
		(1.40782123 0.47096354 0.00000000)
		(1.42458101 0.50369778 0.00000000)
		(1.44134078 0.53640906 0.00000000)
		(1.45810056 0.56889413 0.00000000)
		(1.47486034 0.60095117 0.00000000)
		(1.49162011 0.63238102 0.00000000)
		(1.50837989 0.66298841 0.00000000)
		(1.52513966 0.69258318 0.00000000)
		(1.54189944 0.72098147 0.00000000)
		(1.55865922 0.74800684 0.00000000)
		(1.57541899 0.77349139 0.00000000)
		(1.59217877 0.79727679 0.00000000)
		(1.60893855 0.81921526 0.00000000)
		(1.62569832 0.83917050 0.00000000)
		(1.64245810 0.85701854 0.00000000)
		(1.65921788 0.87264849 0.00000000)
		(1.67597765 0.88596324 0.00000000)
		(1.69273743 0.89688007 0.00000000)
		(1.70949721 0.90533116 0.00000000)
		(1.72625698 0.91126399 0.00000000)
		(1.74301676 0.91464172 0.00000000)
		(1.75977654 0.91544335 0.00000000)
		(1.77653631 0.91366391 0.00000000)
		(1.79329609 0.90931445 0.00000000)
		(1.81005587 0.90242200 0.00000000)
		(1.82681564 0.89302936 0.00000000)
		(1.84357542 0.88119491 0.00000000)
		(1.86033520 0.86699217 0.00000000)
		(1.87709497 0.85050936 0.00000000)
		(1.89385475 0.83184891 0.00000000)
		(1.91061453 0.81112674 0.00000000)
		(1.92737430 0.78847159 0.00000000)
		(1.94413408 0.76402423 0.00000000)
		(1.96089385 0.73793652 0.00000000)
		(1.97765363 0.71037056 0.00000000)
		(1.99441341 0.68149761 0.00000000)
		(2.01117318 0.65149705 0.00000000)
		(2.02793296 0.62055526 0.00000000)
		(2.04469274 0.58886448 0.00000000)
		(2.06145251 0.55662161 0.00000000)
		(2.07821229 0.52402695 0.00000000)
		(2.09497207 0.49128302 0.00000000)
		(2.11173184 0.45859325 0.00000000)
		(2.12849162 0.42616073 0.00000000)
		(2.14525140 0.39418696 0.00000000)
		(2.16201117 0.36287058 0.00000000)
		(2.17877095 0.33240617 0.00000000)
		(2.19553073 0.30298299 0.00000000)
		(2.21229050 0.27478384 0.00000000)
		(2.22905028 0.24798391 0.00000000)
		(2.24581006 0.22274972 0.00000000)
		(2.26256983 0.19923803 0.00000000)
		(2.27932961 0.17759492 0.00000000)
		(2.29608939 0.15795486 0.00000000)
		(2.31284916 0.14043986 0.00000000)
		(2.32960894 0.12515874 0.00000000)
		(2.34636872 0.11220644 0.00000000)
		(2.36312849 0.10166344 0.00000000)
		(2.37988827 0.09359523 0.00000000)
		(2.39664804 0.08805193 0.00000000)
		(2.41340782 0.08506800 0.00000000)
		(2.43016760 0.08466196 0.00000000)
		(2.44692737 0.08683634 0.00000000)
		(2.46368715 0.09157764 0.00000000)
		(2.48044693 0.09885639 0.00000000)
		(2.49720670 0.10862737 0.00000000)
		(2.51396648 0.12082988 0.00000000)