/*--------------------------------*- C++ -*----------------------------------*\\
/*--------------------------------*- C++ -*----------------------------------*\\
| =========                 |                                                 |
| \\\\      /  F ield         | OpenFOAM: The Open Source CFD Toolbox           |
|  \\\\    /   O peration     | Version:  v2012                                 |
|   \\\\  /    A nd           | Website:  www.openfoam.com                      |
|    \\\\/     M anipulation  |                                                 |
\\*---------------------------------------------------------------------------*/
FoamFile
{
    version     2.0;
    format      ascii;
    class       dictionary;
    object      blockMeshDict;
}
// * * * * * * * * * * * * * * * * * * * * * * * * * * * * * * * * * * * * * //

scale   0.01;

xmin -1;
xmax 5;
ymin 0;
ymax 0.5;
zmin 0;
zmax 0.1;

vertices
(
    (-1.00000000 -0.24961693 0.00000000)
    (4.00000000 0.12454659 0.00000000)
    (4.00000000 0.62454659 0.00000000)
    (-1.00000000 0.25038307 0.00000000)
    (-1.00000000 -0.24961693 0.10000000)
    (4.00000000 0.12454659 0.10000000)
    (4.00000000 0.62454659 0.10000000)
    (-1.00000000 0.25038307 0.10000000)
);

blocks
(
    hex (0 1 2 3 4 5 6 7) (200 20 1) simpleGrading (1 1 1)
);

edges
(
	polyLine 0 1
	(
		(-1.00000000 -0.24961693 0.00000000)
		(-0.98000000 -0.24961693 0.00000000)
		(-0.96000000 -0.24961693 0.00000000)
		(-0.94000000 -0.24961693 0.00000000)
		(-0.92000000 -0.24961693 0.00000000)
		(-0.90000000 -0.24961693 0.00000000)
		(-0.88000000 -0.24961693 0.00000000)
		(-0.86000000 -0.24961693 0.00000000)
		(-0.84000000 -0.24961693 0.00000000)
		(-0.82000000 -0.24961693 0.00000000)
		(-0.80000000 -0.24961693 0.00000000)
		(-0.78000000 -0.24961693 0.00000000)
		(-0.76000000 -0.24961693 0.00000000)
		(-0.74000000 -0.24961693 0.00000000)
		(-0.72000000 -0.24961693 0.00000000)
		(-0.70000000 -0.24961693 0.00000000)
		(-0.68000000 -0.24961693 0.00000000)
		(-0.66000000 -0.24961693 0.00000000)
		(-0.64000000 -0.24961693 0.00000000)
		(-0.62000000 -0.24961693 0.00000000)
		(-0.60000000 -0.24961693 0.00000000)
		(-0.58000000 -0.24961693 0.00000000)
		(-0.56000000 -0.24961693 0.00000000)
		(-0.54000000 -0.24961693 0.00000000)
		(-0.52000000 -0.24961693 0.00000000)
		(-0.50000000 -0.24961693 0.00000000)
		(-0.48000000 -0.24961693 0.00000000)
		(-0.46000000 -0.24961693 0.00000000)
		(-0.44000000 -0.24961693 0.00000000)
		(-0.42000000 -0.24961693 0.00000000)
		(-0.40000000 -0.24961693 0.00000000)
		(-0.38000000 -0.24961693 0.00000000)
		(-0.36000000 -0.24961693 0.00000000)
		(-0.34000000 -0.24961693 0.00000000)
		(-0.32000000 -0.24961693 0.00000000)
		(-0.30000000 -0.24961693 0.00000000)
		(-0.28000000 -0.24961693 0.00000000)
		(-0.26000000 -0.24961693 0.00000000)
		(-0.24000000 -0.24961693 0.00000000)
		(-0.22000000 -0.24961693 0.00000000)
		(-0.20000000 -0.24961693 0.00000000)
		(-0.18000000 -0.24961693 0.00000000)
		(-0.16000000 -0.24961693 0.00000000)
		(-0.14000000 -0.24961693 0.00000000)
		(-0.12000000 -0.24961693 0.00000000)
		(-0.10000000 -0.24961693 0.00000000)
		(-0.08162011 -0.24954984 0.00000000)
		(-0.06324022 -0.24934859 0.00000000)
		(-0.04486034 -0.24901316 0.00000000)
		(-0.02648045 -0.24854357 0.00000000)
		(-0.00810056 -0.24793980 0.00000000)
		(0.01027933 -0.24720187 0.00000000)
		(0.02865922 -0.24632977 0.00000000)
		(0.04703911 -0.24532349 0.00000000)
		(0.06541899 -0.24418305 0.00000000)
		(0.08379888 -0.24290843 0.00000000)
		(0.10055866 -0.23901249 0.00000000)
		(0.11731844 -0.23428975 0.00000000)
		(0.13407821 -0.22875654 0.00000000)
		(0.15083799 -0.22243202 0.00000000)
		(0.16759777 -0.21533805 0.00000000)
		(0.18435754 -0.20749919 0.00000000)
		(0.20111732 -0.19894253 0.00000000)
		(0.21787709 -0.18969769 0.00000000)
		(0.23463687 -0.17979664 0.00000000)
		(0.25139665 -0.16927363 0.00000000)
		(0.26815642 -0.15816507 0.00000000)
		(0.28491620 -0.14650938 0.00000000)
		(0.30167598 -0.13434688 0.00000000)
		(0.31843575 -0.12171965 0.00000000)
		(0.33519553 -0.10867136 0.00000000)
		(0.35195531 -0.09524715 0.00000000)
		(0.36871508 -0.08149346 0.00000000)
		(0.38547486 -0.06745786 0.00000000)
		(0.40223464 -0.05318892 0.00000000)
		(0.41899441 -0.03873598 0.00000000)
		(0.43575419 -0.02414904 0.00000000)
		(0.45251397 -0.00947857 0.00000000)
		(0.46927374 0.00522469 0.00000000)
		(0.48603352 0.01990988 0.00000000)
		(0.50279330 0.03452619 0.00000000)
		(0.51955307 0.04902307 0.00000000)
		(0.53631285 0.06335037 0.00000000)
		(0.55307263 0.07745853 0.00000000)
		(0.56983240 0.09129874 0.00000000)
		(0.58659218 0.10482313 0.00000000)
		(0.60335196 0.11798491 0.00000000)
		(0.62011173 0.13073855 0.00000000)
		(0.63687151 0.14303994 0.00000000)
		(0.65363128 0.15484652 0.00000000)
		(0.67039106 0.16611745 0.00000000)
		(0.68715084 0.17681375 0.00000000)
		(0.70391061 0.18689841 0.00000000)
		(0.72067039 0.19633654 0.00000000)
		(0.73743017 0.20509550 0.00000000)
		(0.75418994 0.21314499 0.00000000)
		(0.77094972 0.22045717 0.00000000)
		(0.78770950 0.22700673 0.00000000)
		(0.80446927 0.23277102 0.00000000)
		(0.82122905 0.23773011 0.00000000)
		(0.83798883 0.24186684 0.00000000)
		(0.85474860 0.24516689 0.00000000)
		(0.87150838 0.24761886 0.00000000)
		(0.88826816 0.24921426 0.00000000)
		(0.90502793 0.24994757 0.00000000)
		(0.92178771 0.24981625 0.00000000)
		(0.93854749 0.24882077 0.00000000)
		(0.95530726 0.24696455 0.00000000)
		(0.97206704 0.24425404 0.00000000)
		(0.98882682 0.24069859 0.00000000)
		(1.00558659 0.23631051 0.00000000)
		(1.02234637 0.23110498 0.00000000)
		(1.03910615 0.22510001 0.00000000)
		(1.05586592 0.21831636 0.00000000)
		(1.07262570 0.21077751 0.00000000)
		(1.08938547 0.20250953 0.00000000)
		(1.10614525 0.19354103 0.00000000)
		(1.12290503 0.18390302 0.00000000)
		(1.13966480 0.17362886 0.00000000)
		(1.15642458 0.16275407 0.00000000)
		(1.17318436 0.15131628 0.00000000)
		(1.18994413 0.13935505 0.00000000)
		(1.20670391 0.12691176 0.00000000)
		(1.22346369 0.11402946 0.00000000)
		(1.24022346 0.10075270 0.00000000)
		(1.25698324 0.08712741 0.00000000)
		(1.27374302 0.07320073 0.00000000)
		(1.29050279 0.05902084 0.00000000)
		(1.30726257 0.04463678 0.00000000)
		(1.32402235 0.03009830 0.00000000)
		(1.34078212 0.01545572 0.00000000)
		(1.35754190 0.00075966 0.00000000)
		(1.37430168 -0.01393902 0.00000000)
		(1.39106145 -0.02858948 0.00000000)
		(1.40782123 -0.04314104 0.00000000)
		(1.42458101 -0.05754337 0.00000000)
		(1.44134078 -0.07174665 0.00000000)
		(1.45810056 -0.08570173 0.00000000)
		(1.47486034 -0.09936036 0.00000000)
		(1.49162011 -0.11267527 0.00000000)
		(1.50837989 -0.12560042 0.00000000)
		(1.52513966 -0.13809109 0.00000000)
		(1.54189944 -0.15010407 0.00000000)
		(1.55865922 -0.16159780 0.00000000)
		(1.57541899 -0.17253253 0.00000000)
		(1.59217877 -0.18287043 0.00000000)
		(1.60893855 -0.19257575 0.00000000)
		(1.62569832 -0.20161490 0.00000000)
		(1.64245810 -0.20995662 0.00000000)
		(1.65921788 -0.21757205 0.00000000)
		(1.67597765 -0.22443485 0.00000000)
		(1.69273743 -0.23052128 0.00000000)
		(1.70949721 -0.23581028 0.00000000)
		(1.72625698 -0.24028357 0.00000000)
		(1.74301676 -0.24392566 0.00000000)
		(1.75977654 -0.24672395 0.00000000)
		(1.77653631 -0.24866878 0.00000000)
		(1.79329609 -0.24975340 0.00000000)
		(1.81005587 -0.24997407 0.00000000)
		(1.82681564 -0.24933002 0.00000000)
		(1.84357542 -0.24782348 0.00000000)
		(1.86033520 -0.24545967 0.00000000)
		(1.87709497 -0.24224675 0.00000000)
		(1.89385475 -0.23819585 0.00000000)
		(1.91061453 -0.23332098 0.00000000)
		(1.92737430 -0.22763900 0.00000000)
		(1.94413408 -0.22116956 0.00000000)
		(1.96089385 -0.21393505 0.00000000)
		(1.97765363 -0.20596049 0.00000000)
		(1.99441341 -0.19727346 0.00000000)
		(2.01117318 -0.18790402 0.00000000)
		(2.02793296 -0.17788458 0.00000000)
		(2.04469274 -0.16724980 0.00000000)
		(2.06145251 -0.15603646 0.00000000)
		(2.07821229 -0.14428336 0.00000000)
		(2.09497207 -0.13203115 0.00000000)
		(2.11173184 -0.11932221 0.00000000)
		(2.12849162 -0.10620051 0.00000000)
		(2.14525140 -0.09271144 0.00000000)
		(2.16201117 -0.07890166 0.00000000)
		(2.17877095 -0.06481894 0.00000000)
		(2.19553073 -0.05051200 0.00000000)
		(2.21229050 -0.03603032 0.00000000)
		(2.22905028 -0.02142401 0.00000000)
		(2.24581006 -0.00674359 0.00000000)
		(2.26256983 0.00796016 0.00000000)
		(2.27932961 0.02263638 0.00000000)
		(2.29608939 0.03723429 0.00000000)
		(2.31284916 0.05170340 0.00000000)
		(2.32960894 0.06599365 0.00000000)
		(2.34636872 0.08005562 0.00000000)
		(2.36312849 0.09384065 0.00000000)
		(2.37988827 0.10730108 0.00000000)
		(2.39664804 0.12039032 0.00000000)
		(2.41340782 0.13306310 0.00000000)
		(2.43016760 0.14527559 0.00000000)
		(2.44692737 0.15698554 0.00000000)
		(2.46368715 0.16815244 0.00000000)
		(2.48044693 0.17873767 0.00000000)
		(2.49720670 0.18870460 0.00000000)
		(2.51396648 0.19801876 0.00000000)
		(2.53072626 0.20664792 0.00000000)
		(2.54748603 0.21456225 0.00000000)
		(2.56424581 0.22173436 0.00000000)
		(2.58100559 0.22813943 0.00000000)
		(2.59776536 0.23375533 0.00000000)
		(2.61452514 0.23856261 0.00000000)
		(2.63128492 0.24254464 0.00000000)
		(2.64804469 0.24568767 0.00000000)
		(2.66480447 0.24798080 0.00000000)
		(2.68156425 0.24941611 0.00000000)
		(2.69832402 0.24998863 0.00000000)
		(2.71508380 0.24969639 0.00000000)
		(2.73184358 0.24854040 0.00000000)
		(2.74860335 0.24652464 0.00000000)
		(2.76536313 0.24365610 0.00000000)
		(2.78212291 0.23994470 0.00000000)
		(2.79888268 0.23540328 0.00000000)
		(2.81564246 0.23004754 0.00000000)
		(2.83240223 0.22389602 0.00000000)
		(2.84916201 0.21696999 0.00000000)
		(2.86592179 0.20929342 0.00000000)
		(2.88268156 0.20089285 0.00000000)
		(2.89944134 0.19179735 0.00000000)
		(2.91620112 0.18203837 0.00000000)
		(2.93296089 0.17164969 0.00000000)
		(2.95166480 0.16270010 0.00000000)
		(2.97036872 0.15469257 0.00000000)
		(2.98907263 0.14762711 0.00000000)
		(3.00777654 0.14150370 0.00000000)
		(3.02648045 0.13632236 0.00000000)
		(3.04518436 0.13208308 0.00000000)
		(3.06388827 0.12878586 0.00000000)
		(3.08259218 0.12643071 0.00000000)
		(3.10129609 0.12501762 0.00000000)
		(3.12000000 0.12454659 0.00000000)
		(3.14000000 0.12454659 0.00000000)
		(3.16000000 0.12454659 0.00000000)
		(3.18000000 0.12454659 0.00000000)
		(3.20000000 0.12454659 0.00000000)
		(3.22000000 0.12454659 0.00000000)
		(3.24000000 0.12454659 0.00000000)
		(3.26000000 0.12454659 0.00000000)
		(3.28000000 0.12454659 0.00000000)
		(3.30000000 0.12454659 0.00000000)
		(3.32000000 0.12454659 0.00000000)
		(3.34000000 0.12454659 0.00000000)
		(3.36000000 0.12454659 0.00000000)
		(3.38000000 0.12454659 0.00000000)
		(3.40000000 0.12454659 0.00000000)
		(3.42000000 0.12454659 0.00000000)
		(3.44000000 0.12454659 0.00000000)
		(3.46000000 0.12454659 0.00000000)
		(3.48000000 0.12454659 0.00000000)
		(3.50000000 0.12454659 0.00000000)
		(3.52000000 0.12454659 0.00000000)
		(3.54000000 0.12454659 0.00000000)
		(3.56000000 0.12454659 0.00000000)
		(3.58000000 0.12454659 0.00000000)
		(3.60000000 0.12454659 0.00000000)
		(3.62000000 0.12454659 0.00000000)
		(3.64000000 0.12454659 0.00000000)
		(3.66000000 0.12454659 0.00000000)
		(3.68000000 0.12454659 0.00000000)
		(3.70000000 0.12454659 0.00000000)
		(3.72000000 0.12454659 0.00000000)
		(3.74000000 0.12454659 0.00000000)
		(3.76000000 0.12454659 0.00000000)
		(3.78000000 0.12454659 0.00000000)
		(3.80000000 0.12454659 0.00000000)
		(3.82000000 0.12454659 0.00000000)
		(3.84000000 0.12454659 0.00000000)
		(3.86000000 0.12454659 0.00000000)
		(3.88000000 0.12454659 0.00000000)
		(3.90000000 0.12454659 0.00000000)
		(3.92000000 0.12454659 0.00000000)
		(3.94000000 0.12454659 0.00000000)
		(3.96000000 0.12454659 0.00000000)
		(3.98000000 0.12454659 0.00000000)
		(4.00000000 0.12454659 0.00000000)
	)
	polyLine 4 5
	(
		(-1.00000000 -0.24961693 0.10000000)
		(-0.98000000 -0.24961693 0.10000000)
		(-0.96000000 -0.24961693 0.10000000)
		(-0.94000000 -0.24961693 0.10000000)
		(-0.92000000 -0.24961693 0.10000000)
		(-0.90000000 -0.24961693 0.10000000)
		(-0.88000000 -0.24961693 0.10000000)
		(-0.86000000 -0.24961693 0.10000000)
		(-0.84000000 -0.24961693 0.10000000)
		(-0.82000000 -0.24961693 0.10000000)
		(-0.80000000 -0.24961693 0.10000000)
		(-0.78000000 -0.24961693 0.10000000)
		(-0.76000000 -0.24961693 0.10000000)
		(-0.74000000 -0.24961693 0.10000000)
		(-0.72000000 -0.24961693 0.10000000)
		(-0.70000000 -0.24961693 0.10000000)
		(-0.68000000 -0.24961693 0.10000000)
		(-0.66000000 -0.24961693 0.10000000)
		(-0.64000000 -0.24961693 0.10000000)
		(-0.62000000 -0.24961693 0.10000000)
		(-0.60000000 -0.24961693 0.10000000)
		(-0.58000000 -0.24961693 0.10000000)
		(-0.56000000 -0.24961693 0.10000000)
		(-0.54000000 -0.24961693 0.10000000)
		(-0.52000000 -0.24961693 0.10000000)
		(-0.50000000 -0.24961693 0.10000000)
		(-0.48000000 -0.24961693 0.10000000)
		(-0.46000000 -0.24961693 0.10000000)
		(-0.44000000 -0.24961693 0.10000000)
		(-0.42000000 -0.24961693 0.10000000)
		(-0.40000000 -0.24961693 0.10000000)
		(-0.38000000 -0.24961693 0.10000000)
		(-0.36000000 -0.24961693 0.10000000)
		(-0.34000000 -0.24961693 0.10000000)
		(-0.32000000 -0.24961693 0.10000000)
		(-0.30000000 -0.24961693 0.10000000)
		(-0.28000000 -0.24961693 0.10000000)
		(-0.26000000 -0.24961693 0.10000000)
		(-0.24000000 -0.24961693 0.10000000)
		(-0.22000000 -0.24961693 0.10000000)
		(-0.20000000 -0.24961693 0.10000000)
		(-0.18000000 -0.24961693 0.10000000)
		(-0.16000000 -0.24961693 0.10000000)
		(-0.14000000 -0.24961693 0.10000000)
		(-0.12000000 -0.24961693 0.10000000)
		(-0.10000000 -0.24961693 0.10000000)
		(-0.08162011 -0.24954984 0.10000000)
		(-0.06324022 -0.24934859 0.10000000)
		(-0.04486034 -0.24901316 0.10000000)
		(-0.02648045 -0.24854357 0.10000000)
		(-0.00810056 -0.24793980 0.10000000)
		(0.01027933 -0.24720187 0.10000000)
		(0.02865922 -0.24632977 0.10000000)
		(0.04703911 -0.24532349 0.10000000)
		(0.06541899 -0.24418305 0.10000000)
		(0.08379888 -0.24290843 0.10000000)
		(0.10055866 -0.23901249 0.10000000)
		(0.11731844 -0.23428975 0.10000000)
		(0.13407821 -0.22875654 0.10000000)
		(0.15083799 -0.22243202 0.10000000)
		(0.16759777 -0.21533805 0.10000000)
		(0.18435754 -0.20749919 0.10000000)
		(0.20111732 -0.19894253 0.10000000)
		(0.21787709 -0.18969769 0.10000000)
		(0.23463687 -0.17979664 0.10000000)
		(0.25139665 -0.16927363 0.10000000)
		(0.26815642 -0.15816507 0.10000000)
		(0.28491620 -0.14650938 0.10000000)
		(0.30167598 -0.13434688 0.10000000)
		(0.31843575 -0.12171965 0.10000000)
		(0.33519553 -0.10867136 0.10000000)
		(0.35195531 -0.09524715 0.10000000)
		(0.36871508 -0.08149346 0.10000000)
		(0.38547486 -0.06745786 0.10000000)
		(0.40223464 -0.05318892 0.10000000)
		(0.41899441 -0.03873598 0.10000000)
		(0.43575419 -0.02414904 0.10000000)
		(0.45251397 -0.00947857 0.10000000)
		(0.46927374 0.00522469 0.10000000)
		(0.48603352 0.01990988 0.10000000)
		(0.50279330 0.03452619 0.10000000)
		(0.51955307 0.04902307 0.10000000)
		(0.53631285 0.06335037 0.10000000)
		(0.55307263 0.07745853 0.10000000)
		(0.56983240 0.09129874 0.10000000)
		(0.58659218 0.10482313 0.10000000)
		(0.60335196 0.11798491 0.10000000)
		(0.62011173 0.13073855 0.10000000)
		(0.63687151 0.14303994 0.10000000)
		(0.65363128 0.15484652 0.10000000)
		(0.67039106 0.16611745 0.10000000)
		(0.68715084 0.17681375 0.10000000)
		(0.70391061 0.18689841 0.10000000)
		(0.72067039 0.19633654 0.10000000)
		(0.73743017 0.20509550 0.10000000)
		(0.75418994 0.21314499 0.10000000)
		(0.77094972 0.22045717 0.10000000)
		(0.78770950 0.22700673 0.10000000)
		(0.80446927 0.23277102 0.10000000)
		(0.82122905 0.23773011 0.10000000)
		(0.83798883 0.24186684 0.10000000)
		(0.85474860 0.24516689 0.10000000)
		(0.87150838 0.24761886 0.10000000)
		(0.88826816 0.24921426 0.10000000)
		(0.90502793 0.24994757 0.10000000)
		(0.92178771 0.24981625 0.10000000)
		(0.93854749 0.24882077 0.10000000)
		(0.95530726 0.24696455 0.10000000)
		(0.97206704 0.24425404 0.10000000)
		(0.98882682 0.24069859 0.10000000)
		(1.00558659 0.23631051 0.10000000)
		(1.02234637 0.23110498 0.10000000)
		(1.03910615 0.22510001 0.10000000)
		(1.05586592 0.21831636 0.10000000)
		(1.07262570 0.21077751 0.10000000)
		(1.08938547 0.20250953 0.10000000)
		(1.10614525 0.19354103 0.10000000)
		(1.12290503 0.18390302 0.10000000)
		(1.13966480 0.17362886 0.10000000)
		(1.15642458 0.16275407 0.10000000)
		(1.17318436 0.15131628 0.10000000)
		(1.18994413 0.13935505 0.10000000)
		(1.20670391 0.12691176 0.10000000)
		(1.22346369 0.11402946 0.10000000)
		(1.24022346 0.10075270 0.10000000)
		(1.25698324 0.08712741 0.10000000)
		(1.27374302 0.07320073 0.10000000)
		(1.29050279 0.05902084 0.10000000)
		(1.30726257 0.04463678 0.10000000)
		(1.32402235 0.03009830 0.10000000)
		(1.34078212 0.01545572 0.10000000)
		(1.35754190 0.00075966 0.10000000)
		(1.37430168 -0.01393902 0.10000000)
		(1.39106145 -0.02858948 0.10000000)
		(1.40782123 -0.04314104 0.10000000)
		(1.42458101 -0.05754337 0.10000000)
		(1.44134078 -0.07174665 0.10000000)
		(1.45810056 -0.08570173 0.10000000)
		(1.47486034 -0.09936036 0.10000000)
		(1.49162011 -0.11267527 0.10000000)
		(1.50837989 -0.12560042 0.10000000)
		(1.52513966 -0.13809109 0.10000000)
		(1.54189944 -0.15010407 0.10000000)
		(1.55865922 -0.16159780 0.10000000)
		(1.57541899 -0.17253253 0.10000000)
		(1.59217877 -0.18287043 0.10000000)
		(1.60893855 -0.19257575 0.10000000)
		(1.62569832 -0.20161490 0.10000000)
		(1.64245810 -0.20995662 0.10000000)
		(1.65921788 -0.21757205 0.10000000)
		(1.67597765 -0.22443485 0.10000000)
		(1.69273743 -0.23052128 0.10000000)
		(1.70949721 -0.23581028 0.10000000)
		(1.72625698 -0.24028357 0.10000000)
		(1.74301676 -0.24392566 0.10000000)
		(1.75977654 -0.24672395 0.10000000)
		(1.77653631 -0.24866878 0.10000000)
		(1.79329609 -0.24975340 0.10000000)
		(1.81005587 -0.24997407 0.10000000)
		(1.82681564 -0.24933002 0.10000000)
		(1.84357542 -0.24782348 0.10000000)
		(1.86033520 -0.24545967 0.10000000)
		(1.87709497 -0.24224675 0.10000000)
		(1.89385475 -0.23819585 0.10000000)
		(1.91061453 -0.23332098 0.10000000)
		(1.92737430 -0.22763900 0.10000000)
		(1.94413408 -0.22116956 0.10000000)
		(1.96089385 -0.21393505 0.10000000)
		(1.97765363 -0.20596049 0.10000000)
		(1.99441341 -0.19727346 0.10000000)
		(2.01117318 -0.18790402 0.10000000)
		(2.02793296 -0.17788458 0.10000000)
		(2.04469274 -0.16724980 0.10000000)
		(2.06145251 -0.15603646 0.10000000)
		(2.07821229 -0.14428336 0.10000000)
		(2.09497207 -0.13203115 0.10000000)
		(2.11173184 -0.11932221 0.10000000)
		(2.12849162 -0.10620051 0.10000000)
		(2.14525140 -0.09271144 0.10000000)
		(2.16201117 -0.07890166 0.10000000)
		(2.17877095 -0.06481894 0.10000000)
		(2.19553073 -0.05051200 0.10000000)
		(2.21229050 -0.03603032 0.10000000)
		(2.22905028 -0.02142401 0.10000000)
		(2.24581006 -0.00674359 0.10000000)
		(2.26256983 0.00796016 0.10000000)
		(2.27932961 0.02263638 0.10000000)
		(2.29608939 0.03723429 0.10000000)
		(2.31284916 0.05170340 0.10000000)
		(2.32960894 0.06599365 0.10000000)
		(2.34636872 0.08005562 0.10000000)
		(2.36312849 0.09384065 0.10000000)
		(2.37988827 0.10730108 0.10000000)
		(2.39664804 0.12039032 0.10000000)
		(2.41340782 0.13306310 0.10000000)
		(2.43016760 0.14527559 0.10000000)
		(2.44692737 0.15698554 0.10000000)
		(2.46368715 0.16815244 0.10000000)
		(2.48044693 0.17873767 0.10000000)
		(2.49720670 0.18870460 0.10000000)
		(2.51396648 0.19801876 0.10000000)
		(2.53072626 0.20664792 0.10000000)
		(2.54748603 0.21456225 0.10000000)
		(2.56424581 0.22173436 0.10000000)
		(2.58100559 0.22813943 0.10000000)
		(2.59776536 0.23375533 0.10000000)
		(2.61452514 0.23856261 0.10000000)
		(2.63128492 0.24254464 0.10000000)
		(2.64804469 0.24568767 0.10000000)
		(2.66480447 0.24798080 0.10000000)
		(2.68156425 0.24941611 0.10000000)
		(2.69832402 0.24998863 0.10000000)
		(2.71508380 0.24969639 0.10000000)
		(2.73184358 0.24854040 0.10000000)
		(2.74860335 0.24652464 0.10000000)
		(2.76536313 0.24365610 0.10000000)
		(2.78212291 0.23994470 0.10000000)
		(2.79888268 0.23540328 0.10000000)
		(2.81564246 0.23004754 0.10000000)
		(2.83240223 0.22389602 0.10000000)
		(2.84916201 0.21696999 0.10000000)
		(2.86592179 0.20929342 0.10000000)
		(2.88268156 0.20089285 0.10000000)
		(2.89944134 0.19179735 0.10000000)
		(2.91620112 0.18203837 0.10000000)
		(2.93296089 0.17164969 0.10000000)
		(2.95166480 0.16270010 0.10000000)
		(2.97036872 0.15469257 0.10000000)
		(2.98907263 0.14762711 0.10000000)
		(3.00777654 0.14150370 0.10000000)
		(3.02648045 0.13632236 0.10000000)
		(3.04518436 0.13208308 0.10000000)
		(3.06388827 0.12878586 0.10000000)
		(3.08259218 0.12643071 0.10000000)
		(3.10129609 0.12501762 0.10000000)
		(3.12000000 0.12454659 0.10000000)
		(3.14000000 0.12454659 0.10000000)
		(3.16000000 0.12454659 0.10000000)
		(3.18000000 0.12454659 0.10000000)
		(3.20000000 0.12454659 0.10000000)
		(3.22000000 0.12454659 0.10000000)
		(3.24000000 0.12454659 0.10000000)
		(3.26000000 0.12454659 0.10000000)
		(3.28000000 0.12454659 0.10000000)
		(3.30000000 0.12454659 0.10000000)
		(3.32000000 0.12454659 0.10000000)
		(3.34000000 0.12454659 0.10000000)
		(3.36000000 0.12454659 0.10000000)
		(3.38000000 0.12454659 0.10000000)
		(3.40000000 0.12454659 0.10000000)
		(3.42000000 0.12454659 0.10000000)
		(3.44000000 0.12454659 0.10000000)
		(3.46000000 0.12454659 0.10000000)
		(3.48000000 0.12454659 0.10000000)
		(3.50000000 0.12454659 0.10000000)
		(3.52000000 0.12454659 0.10000000)
		(3.54000000 0.12454659 0.10000000)
		(3.56000000 0.12454659 0.10000000)
		(3.58000000 0.12454659 0.10000000)
		(3.60000000 0.12454659 0.10000000)
		(3.62000000 0.12454659 0.10000000)
		(3.64000000 0.12454659 0.10000000)
		(3.66000000 0.12454659 0.10000000)
		(3.68000000 0.12454659 0.10000000)
		(3.70000000 0.12454659 0.10000000)
		(3.72000000 0.12454659 0.10000000)
		(3.74000000 0.12454659 0.10000000)
		(3.76000000 0.12454659 0.10000000)
		(3.78000000 0.12454659 0.10000000)
		(3.80000000 0.12454659 0.10000000)
		(3.82000000 0.12454659 0.10000000)
		(3.84000000 0.12454659 0.10000000)
		(3.86000000 0.12454659 0.10000000)
		(3.88000000 0.12454659 0.10000000)
		(3.90000000 0.12454659 0.10000000)
		(3.92000000 0.12454659 0.10000000)
		(3.94000000 0.12454659 0.10000000)
		(3.96000000 0.12454659 0.10000000)
		(3.98000000 0.12454659 0.10000000)
		(4.00000000 0.12454659 0.10000000)
	)
	polyLine 3 2
	(
		(-1.00000000 0.25038307 0.00000000)
		(-0.98000000 0.24563772 0.00000000)
		(-0.96000000 0.24089237 0.00000000)
		(-0.94000000 0.23614702 0.00000000)
		(-0.92000000 0.23140167 0.00000000)
		(-0.90000000 0.22665632 0.00000000)
		(-0.88000000 0.22191098 0.00000000)
		(-0.86000000 0.21716563 0.00000000)
		(-0.84000000 0.21242028 0.00000000)
		(-0.82000000 0.20767493 0.00000000)
		(-0.80000000 0.20292958 0.00000000)
		(-0.78000000 0.19818423 0.00000000)
		(-0.76000000 0.19343888 0.00000000)
		(-0.74000000 0.18869353 0.00000000)
		(-0.72000000 0.18394818 0.00000000)
		(-0.70000000 0.17920283 0.00000000)
		(-0.68000000 0.17445748 0.00000000)
		(-0.66000000 0.16971213 0.00000000)
		(-0.64000000 0.16496678 0.00000000)
		(-0.62000000 0.16022143 0.00000000)
		(-0.60000000 0.15547608 0.00000000)
		(-0.58000000 0.15073073 0.00000000)
		(-0.56000000 0.14598538 0.00000000)
		(-0.54000000 0.14124003 0.00000000)
		(-0.52000000 0.13649468 0.00000000)
		(-0.50000000 0.13174933 0.00000000)
		(-0.48000000 0.12700398 0.00000000)
		(-0.46000000 0.12225863 0.00000000)
		(-0.44000000 0.11751328 0.00000000)
		(-0.42000000 0.11276793 0.00000000)
		(-0.40000000 0.10802259 0.00000000)
		(-0.38000000 0.10327724 0.00000000)
		(-0.36000000 0.09853189 0.00000000)
		(-0.34000000 0.09378654 0.00000000)
		(-0.32000000 0.08904119 0.00000000)
		(-0.30000000 0.08429584 0.00000000)
		(-0.28000000 0.07955049 0.00000000)
		(-0.26000000 0.07480514 0.00000000)
		(-0.24000000 0.07005979 0.00000000)
		(-0.22000000 0.06531444 0.00000000)
		(-0.20000000 0.06056909 0.00000000)
		(-0.18000000 0.05582374 0.00000000)
		(-0.16000000 0.05107839 0.00000000)
		(-0.14000000 0.04633304 0.00000000)
		(-0.12000000 0.04158769 0.00000000)
		(-0.10000000 0.03684234 0.00000000)
		(-0.08162011 0.03343927 0.00000000)
		(-0.06324022 0.03065857 0.00000000)
		(-0.04486034 0.02850024 0.00000000)
		(-0.02648045 0.02696430 0.00000000)
		(-0.00810056 0.02605073 0.00000000)
		(0.01027933 0.02575953 0.00000000)
		(0.02865922 0.02609071 0.00000000)
		(0.04703911 0.02704426 0.00000000)
		(0.06541899 0.02862020 0.00000000)
		(0.08379888 0.03081850 0.00000000)
		(0.10055866 0.03834358 0.00000000)
		(0.11731844 0.04746563 0.00000000)
		(0.13407821 0.05815310 0.00000000)
		(0.15083799 0.07036902 0.00000000)
		(0.16759777 0.08407113 0.00000000)
		(0.18435754 0.09921203 0.00000000)
		(0.20111732 0.11573935 0.00000000)
		(0.21787709 0.13359590 0.00000000)
		(0.23463687 0.15271994 0.00000000)
		(0.25139665 0.17304529 0.00000000)
		(0.26815642 0.19450165 0.00000000)
		(0.28491620 0.21701480 0.00000000)
		(0.30167598 0.24050686 0.00000000)
		(0.31843575 0.26489657 0.00000000)
		(0.33519553 0.29009955 0.00000000)
		(0.35195531 0.31602862 0.00000000)
		(0.36871508 0.34259409 0.00000000)
		(0.38547486 0.36970407 0.00000000)
		(0.40223464 0.39726476 0.00000000)
		(0.41899441 0.42518085 0.00000000)
		(0.43575419 0.45335574 0.00000000)
		(0.45251397 0.48169199 0.00000000)
		(0.46927374 0.51009157 0.00000000)
		(0.48603352 0.53845625 0.00000000)
		(0.50279330 0.56668789 0.00000000)
		(0.51955307 0.59468885 0.00000000)
		(0.53631285 0.62236225 0.00000000)
		(0.55307263 0.64961238 0.00000000)
		(0.56983240 0.67634496 0.00000000)
		(0.58659218 0.70246753 0.00000000)
		(0.60335196 0.72788972 0.00000000)
		(0.62011173 0.75252358 0.00000000)
		(0.63687151 0.77628391 0.00000000)
		(0.65363128 0.79908851 0.00000000)
		(0.67039106 0.82085850 0.00000000)
		(0.68715084 0.84151856 0.00000000)
		(0.70391061 0.86099724 0.00000000)
		(0.72067039 0.87922714 0.00000000)
		(0.73743017 0.89614522 0.00000000)
		(0.75418994 0.91169294 0.00000000)
		(0.77094972 0.92581651 0.00000000)
		(0.78770950 0.93846710 0.00000000)
		(0.80446927 0.94960093 0.00000000)
		(0.82122905 0.95917948 0.00000000)
		(0.83798883 0.96716964 0.00000000)
		(0.85474860 0.97354374 0.00000000)
		(0.87150838 0.97827976 0.00000000)
		(0.88826816 0.98136129 0.00000000)
		(0.90502793 0.98277769 0.00000000)
		(0.92178771 0.98252406 0.00000000)
		(0.93854749 0.98060126 0.00000000)
		(0.95530726 0.97701596 0.00000000)
		(0.97206704 0.97178055 0.00000000)
		(0.98882682 0.96491314 0.00000000)
		(1.00558659 0.95643750 0.00000000)
		(1.02234637 0.94638294 0.00000000)
		(1.03910615 0.93478423 0.00000000)
		(1.05586592 0.92168152 0.00000000)
		(1.07262570 0.90712011 0.00000000)
		(1.08938547 0.89115038 0.00000000)
		(1.10614525 0.87382757 0.00000000)
		(1.12290503 0.85521161 0.00000000)
		(1.13966480 0.83536689 0.00000000)
		(1.15642458 0.81436207 0.00000000)
		(1.17318436 0.79226979 0.00000000)
		(1.18994413 0.76916649 0.00000000)
		(1.20670391 0.74513208 0.00000000)
		(1.22346369 0.72024970 0.00000000)
		(1.24022346 0.69460543 0.00000000)
		(1.25698324 0.66828798 0.00000000)
		(1.27374302 0.64138838 0.00000000)
		(1.29050279 0.61399969 0.00000000)
		(1.30726257 0.58621664 0.00000000)
		(1.32402235 0.55813535 0.00000000)
		(1.34078212 0.52985296 0.00000000)
		(1.35754190 0.50146730 0.00000000)
		(1.37430168 0.47307657 0.00000000)
		(1.39106145 0.44477897 0.00000000)
		(1.40782123 0.41667239 0.00000000)
		(1.42458101 0.38885406 0.00000000)
		(1.44134078 0.36142021 0.00000000)
		(1.45810056 0.33446574 0.00000000)
		(1.47486034 0.30808389 0.00000000)
		(1.49162011 0.28236592 0.00000000)
		(1.50837989 0.25740079 0.00000000)
		(1.52513966 0.23327487 0.00000000)
		(1.54189944 0.21007162 0.00000000)
		(1.55865922 0.18787128 0.00000000)
		(1.57541899 0.16675068 0.00000000)
		(1.59217877 0.14678285 0.00000000)
		(1.60893855 0.12803689 0.00000000)
		(1.62569832 0.11057763 0.00000000)
		(1.64245810 0.09446547 0.00000000)
		(1.65921788 0.07975614 0.00000000)
		(1.67597765 0.06650053 0.00000000)
		(1.69273743 0.05474449 0.00000000)
		(1.70949721 0.04452869 0.00000000)
		(1.72625698 0.03588847 0.00000000)
		(1.74301676 0.02885372 0.00000000)
		(1.75977654 0.02344877 0.00000000)
		(1.77653631 0.01969231 0.00000000)
		(1.79329609 0.01759735 0.00000000)
		(1.81005587 0.01717112 0.00000000)
		(1.82681564 0.01841511 0.00000000)
		(1.84357542 0.02132501 0.00000000)
		(1.86033520 0.02589075 0.00000000)
		(1.87709497 0.03209655 0.00000000)
		(1.89385475 0.03992093 0.00000000)
		(1.91061453 0.04933682 0.00000000)
		(1.92737430 0.06031166 0.00000000)
		(1.94413408 0.07280748 0.00000000)
		(1.96089385 0.08678106 0.00000000)
		(1.97765363 0.10218405 0.00000000)
		(1.99441341 0.11896318 0.00000000)
		(2.01117318 0.13706040 0.00000000)
		(2.02793296 0.15641310 0.00000000)
		(2.04469274 0.17695436 0.00000000)
		(2.06145251 0.19861310 0.00000000)
		(2.07821229 0.22131440 0.00000000)
		(2.09497207 0.24497975 0.00000000)
		(2.11173184 0.26952726 0.00000000)
		(2.12849162 0.29487203 0.00000000)
		(2.14525140 0.32092639 0.00000000)
		(2.16201117 0.34760020 0.00000000)
		(2.17877095 0.37480119 0.00000000)
		(2.19553073 0.40243528 0.00000000)
		(2.21229050 0.43040686 0.00000000)
		(2.22905028 0.45861919 0.00000000)
		(2.24581006 0.48697466 0.00000000)
		(2.26256983 0.51537518 0.00000000)
		(2.27932961 0.54372252 0.00000000)
		(2.29608939 0.57191862 0.00000000)
		(2.31284916 0.59986593 0.00000000)
		(2.32960894 0.62746778 0.00000000)
		(2.34636872 0.65462870 0.00000000)
		(2.36312849 0.68125471 0.00000000)
		(2.37988827 0.70725373 0.00000000)
		(2.39664804 0.73253581 0.00000000)
		(2.41340782 0.75701350 0.00000000)
		(2.43016760 0.78060211 0.00000000)
		(2.44692737 0.80322007 0.00000000)
		(2.46368715 0.82478911 0.00000000)
		(2.48044693 0.84523464 0.00000000)
		(2.49720670 0.86448593 0.00000000)
		(2.51396648 0.88247637 0.00000000)
		(2.53072626 0.89914374 0.00000000)