/*--------------------------------*- C++ -*----------------------------------*\\
/*--------------------------------*- C++ -*----------------------------------*\\
| =========                 |                                                 |
| \\\\      /  F ield         | OpenFOAM: The Open Source CFD Toolbox           |
|  \\\\    /   O peration     | Version:  v2012                                 |
|   \\\\  /    A nd           | Website:  www.openfoam.com                      |
|    \\\\/     M anipulation  |                                                 |
\\*---------------------------------------------------------------------------*/
FoamFile
{
    version     2.0;
    format      ascii;
    class       dictionary;
    object      blockMeshDict;
}
// * * * * * * * * * * * * * * * * * * * * * * * * * * * * * * * * * * * * * //

scale   0.01;

xmin -1;
xmax 5;
ymin 0;
ymax 0.5;
zmin 0;
zmax 0.1;

vertices
(
    (-1.00000000 -0.24474149 0.00000000)
    (4.00000000 0.12777822 0.00000000)
    (4.00000000 0.62777822 0.00000000)
    (-1.00000000 0.25525851 0.00000000)
    (-1.00000000 -0.24474149 0.10000000)
    (4.00000000 0.12777822 0.10000000)
    (4.00000000 0.62777822 0.10000000)
    (-1.00000000 0.25525851 0.10000000)
);

blocks
(
    hex (0 1 2 3 4 5 6 7) (200 20 1) simpleGrading (1 1 1)
);

edges
(
	polyLine 0 1
	(
		(-1.00000000 -0.24474149 0.00000000)
		(-0.98000000 -0.24474149 0.00000000)
		(-0.96000000 -0.24474149 0.00000000)
		(-0.94000000 -0.24474149 0.00000000)
		(-0.92000000 -0.24474149 0.00000000)
		(-0.90000000 -0.24474149 0.00000000)
		(-0.88000000 -0.24474149 0.00000000)
		(-0.86000000 -0.24474149 0.00000000)
		(-0.84000000 -0.24474149 0.00000000)
		(-0.82000000 -0.24474149 0.00000000)
		(-0.80000000 -0.24474149 0.00000000)
		(-0.78000000 -0.24474149 0.00000000)
		(-0.76000000 -0.24474149 0.00000000)
		(-0.74000000 -0.24474149 0.00000000)
		(-0.72000000 -0.24474149 0.00000000)
		(-0.70000000 -0.24474149 0.00000000)
		(-0.68000000 -0.24474149 0.00000000)
		(-0.66000000 -0.24474149 0.00000000)
		(-0.64000000 -0.24474149 0.00000000)
		(-0.62000000 -0.24474149 0.00000000)
		(-0.60000000 -0.24474149 0.00000000)
		(-0.58000000 -0.24474149 0.00000000)
		(-0.56000000 -0.24474149 0.00000000)
		(-0.54000000 -0.24474149 0.00000000)
		(-0.52000000 -0.24474149 0.00000000)
		(-0.50000000 -0.24474149 0.00000000)
		(-0.48000000 -0.24474149 0.00000000)
		(-0.46000000 -0.24474149 0.00000000)
		(-0.44000000 -0.24474149 0.00000000)
		(-0.42000000 -0.24474149 0.00000000)
		(-0.40000000 -0.24474149 0.00000000)
		(-0.38000000 -0.24474149 0.00000000)
		(-0.36000000 -0.24474149 0.00000000)
		(-0.34000000 -0.24474149 0.00000000)
		(-0.32000000 -0.24474149 0.00000000)
		(-0.30000000 -0.24474149 0.00000000)
		(-0.28000000 -0.24474149 0.00000000)
		(-0.26000000 -0.24474149 0.00000000)
		(-0.24000000 -0.24474149 0.00000000)
		(-0.22000000 -0.24474149 0.00000000)
		(-0.20000000 -0.24474149 0.00000000)
		(-0.18000000 -0.24474149 0.00000000)
		(-0.16000000 -0.24474149 0.00000000)
		(-0.14000000 -0.24474149 0.00000000)
		(-0.12000000 -0.24474149 0.00000000)
		(-0.10000000 -0.24474149 0.00000000)
		(-0.08162011 -0.24478340 0.00000000)
		(-0.06324022 -0.24490915 0.00000000)
		(-0.04486034 -0.24511872 0.00000000)
		(-0.02648045 -0.24541212 0.00000000)
		(-0.00810056 -0.24578935 0.00000000)
		(0.01027933 -0.24625041 0.00000000)
		(0.02865922 -0.24679529 0.00000000)
		(0.04703911 -0.24742401 0.00000000)
		(0.06541899 -0.24813655 0.00000000)
		(0.08379888 -0.24893293 0.00000000)
		(0.10055866 -0.24711736 0.00000000)
		(0.11731844 -0.24442489 0.00000000)
		(0.13407821 -0.24086506 0.00000000)
		(0.15083799 -0.23645051 0.00000000)
		(0.16759777 -0.23119691 0.00000000)
		(0.18435754 -0.22512288 0.00000000)
		(0.20111732 -0.21825000 0.00000000)
		(0.21787709 -0.21060264 0.00000000)
		(0.23463687 -0.20220795 0.00000000)
		(0.25139665 -0.19309572 0.00000000)
		(0.26815642 -0.18329827 0.00000000)
		(0.28491620 -0.17285038 0.00000000)
		(0.30167598 -0.16178912 0.00000000)
		(0.31843575 -0.15015374 0.00000000)
		(0.33519553 -0.13798554 0.00000000)
		(0.35195531 -0.12532768 0.00000000)
		(0.36871508 -0.11222509 0.00000000)
		(0.38547486 -0.09872427 0.00000000)
		(0.40223464 -0.08487312 0.00000000)
		(0.41899441 -0.07072079 0.00000000)
		(0.43575419 -0.05631750 0.00000000)
		(0.45251397 -0.04171437 0.00000000)
		(0.46927374 -0.02696321 0.00000000)
		(0.48603352 -0.01211637 0.00000000)
		(0.50279330 0.00277346 0.00000000)
		(0.51955307 0.01765345 0.00000000)
		(0.53631285 0.03247080 0.00000000)
		(0.55307263 0.04717292 0.00000000)
		(0.56983240 0.06170765 0.00000000)
		(0.58659218 0.07602341 0.00000000)
		(0.60335196 0.09006939 0.00000000)
		(0.62011173 0.10379575 0.00000000)
		(0.63687151 0.11715379 0.00000000)
		(0.65363128 0.13009611 0.00000000)
		(0.67039106 0.14257677 0.00000000)
		(0.68715084 0.15455149 0.00000000)
		(0.70391061 0.16597777 0.00000000)
		(0.72067039 0.17681507 0.00000000)
		(0.73743017 0.18702494 0.00000000)
		(0.75418994 0.19657114 0.00000000)
		(0.77094972 0.20541979 0.00000000)
		(0.78770950 0.21353950 0.00000000)
		(0.80446927 0.22090146 0.00000000)
		(0.82122905 0.22747953 0.00000000)
		(0.83798883 0.23325038 0.00000000)
		(0.85474860 0.23819353 0.00000000)
		(0.87150838 0.24229144 0.00000000)
		(0.88826816 0.24552956 0.00000000)
		(0.90502793 0.24789640 0.00000000)
		(0.92178771 0.24938358 0.00000000)
		(0.93854749 0.24998580 0.00000000)
		(0.95530726 0.24970093 0.00000000)
		(0.97206704 0.24852998 0.00000000)
		(0.98882682 0.24647712 0.00000000)
		(1.00558659 0.24354961 0.00000000)
		(1.02234637 0.23975786 0.00000000)
		(1.03910615 0.23511531 0.00000000)
		(1.05586592 0.22963845 0.00000000)
		(1.07262570 0.22334670 0.00000000)
		(1.08938547 0.21626239 0.00000000)
		(1.10614525 0.20841066 0.00000000)
		(1.12290503 0.19981938 0.00000000)
		(1.13966480 0.19051902 0.00000000)
		(1.15642458 0.18054260 0.00000000)
		(1.17318436 0.16992551 0.00000000)
		(1.18994413 0.15870544 0.00000000)
		(1.20670391 0.14692219 0.00000000)
		(1.22346369 0.13461757 0.00000000)
		(1.24022346 0.12183526 0.00000000)
		(1.25698324 0.10862061 0.00000000)
		(1.27374302 0.09502052 0.00000000)
		(1.29050279 0.08108324 0.00000000)
		(1.30726257 0.06685823 0.00000000)
		(1.32402235 0.05239597 0.00000000)
		(1.34078212 0.03774778 0.00000000)
		(1.35754190 0.02296564 0.00000000)
		(1.37430168 0.00810200 0.00000000)
		(1.39106145 -0.00679038 0.00000000)
		(1.40782123 -0.02165867 0.00000000)
		(1.42458101 -0.03645010 0.00000000)
		(1.44134078 -0.05111219 0.00000000)
		(1.45810056 -0.06559290 0.00000000)
		(1.47486034 -0.07984085 0.00000000)
		(1.49162011 -0.09380549 0.00000000)
		(1.50837989 -0.10743725 0.00000000)
		(1.52513966 -0.12068776 0.00000000)
		(1.54189944 -0.13351000 0.00000000)
		(1.55865922 -0.14585848 0.00000000)
		(1.57541899 -0.15768937 0.00000000)
		(1.59217877 -0.16896069 0.00000000)
		(1.60893855 -0.17963245 0.00000000)
		(1.62569832 -0.18966677 0.00000000)
		(1.64245810 -0.19902804 0.00000000)
		(1.65921788 -0.20768306 0.00000000)
		(1.67597765 -0.21560110 0.00000000)
		(1.69273743 -0.22275406 0.00000000)
		(1.70949721 -0.22911658 0.00000000)
		(1.72625698 -0.23466606 0.00000000)
		(1.74301676 -0.23938281 0.00000000)
		(1.75977654 -0.24325011 0.00000000)
		(1.77653631 -0.24625421 0.00000000)
		(1.79329609 -0.24838447 0.00000000)
		(1.81005587 -0.24963332 0.00000000)
		(1.82681564 -0.24999634 0.00000000)
		(1.84357542 -0.24947223 0.00000000)
		(1.86033520 -0.24806286 0.00000000)
		(1.87709497 -0.24577322 0.00000000)
		(1.89385475 -0.24261144 0.00000000)
		(1.91061453 -0.23858874 0.00000000)
		(1.92737430 -0.23371939 0.00000000)
		(1.94413408 -0.22802068 0.00000000)
		(1.96089385 -0.22151283 0.00000000)
		(1.97765363 -0.21421892 0.00000000)
		(1.99441341 -0.20616485 0.00000000)
		(2.01117318 -0.19737919 0.00000000)
		(2.02793296 -0.18789312 0.00000000)
		(2.04469274 -0.17774030 0.00000000)
		(2.06145251 -0.16695676 0.00000000)
		(2.07821229 -0.15558077 0.00000000)
		(2.09497207 -0.14365268 0.00000000)
		(2.11173184 -0.13121484 0.00000000)
		(2.12849162 -0.11831138 0.00000000)
		(2.14525140 -0.10498808 0.00000000)
		(2.16201117 -0.09129222 0.00000000)
		(2.17877095 -0.07727241 0.00000000)
		(2.19553073 -0.06297840 0.00000000)
		(2.21229050 -0.04846090 0.00000000)
		(2.22905028 -0.03377144 0.00000000)
		(2.24581006 -0.01896213 0.00000000)
		(2.26256983 -0.00408554 0.00000000)
		(2.27932961 0.01080555 0.00000000)
		(2.29608939 0.02565830 0.00000000)
		(2.31284916 0.04041999 0.00000000)
		(2.32960894 0.05503826 0.00000000)
		(2.34636872 0.06946121 0.00000000)
		(2.36312849 0.08363768 0.00000000)
		(2.37988827 0.09751736 0.00000000)
		(2.39664804 0.11105099 0.00000000)
		(2.41340782 0.12419055 0.00000000)
		(2.43016760 0.13688942 0.00000000)
		(2.44692737 0.14910252 0.00000000)
		(2.46368715 0.16078653 0.00000000)
		(2.48044693 0.17189997 0.00000000)
		(2.49720670 0.18240342 0.00000000)
		(2.51396648 0.19225961 0.00000000)
		(2.53072626 0.20143354 0.00000000)
		(2.54748603 0.20989268 0.00000000)
		(2.56424581 0.21760701 0.00000000)
		(2.58100559 0.22454914 0.00000000)
		(2.59776536 0.23069445 0.00000000)
		(2.61452514 0.23602113 0.00000000)
		(2.63128492 0.24051027 0.00000000)
		(2.64804469 0.24414595 0.00000000)
		(2.66480447 0.24691527 0.00000000)
		(2.68156425 0.24880839 0.00000000)
		(2.69832402 0.24981860 0.00000000)
		(2.71508380 0.24994232 0.00000000)
		(2.73184358 0.24917910 0.00000000)
		(2.74860335 0.24753166 0.00000000)
		(2.76536313 0.24500584 0.00000000)
		(2.78212291 0.24161060 0.00000000)
		(2.79888268 0.23735799 0.00000000)
		(2.81564246 0.23226311 0.00000000)
		(2.83240223 0.22634403 0.00000000)
		(2.84916201 0.21962175 0.00000000)
		(2.86592179 0.21212013 0.00000000)
		(2.88268156 0.20386580 0.00000000)
		(2.89944134 0.19488803 0.00000000)
		(2.91620112 0.18521869 0.00000000)
		(2.93296089 0.17489210 0.00000000)
		(2.95166480 0.16594046 0.00000000)
		(2.97036872 0.15793110 0.00000000)
		(2.98907263 0.15086402 0.00000000)
		(3.00777654 0.14473922 0.00000000)
		(3.02648045 0.13955669 0.00000000)
		(3.04518436 0.13531644 0.00000000)
		(3.06388827 0.13201847 0.00000000)
		(3.08259218 0.12966278 0.00000000)
		(3.10129609 0.12824936 0.00000000)
		(3.12000000 0.12777822 0.00000000)
		(3.14000000 0.12777822 0.00000000)
		(3.16000000 0.12777822 0.00000000)
		(3.18000000 0.12777822 0.00000000)
		(3.20000000 0.12777822 0.00000000)
		(3.22000000 0.12777822 0.00000000)
		(3.24000000 0.12777822 0.00000000)
		(3.26000000 0.12777822 0.00000000)
		(3.28000000 0.12777822 0.00000000)
		(3.30000000 0.12777822 0.00000000)
		(3.32000000 0.12777822 0.00000000)
		(3.34000000 0.12777822 0.00000000)
		(3.36000000 0.12777822 0.00000000)
		(3.38000000 0.12777822 0.00000000)
		(3.40000000 0.12777822 0.00000000)
		(3.42000000 0.12777822 0.00000000)
		(3.44000000 0.12777822 0.00000000)
		(3.46000000 0.12777822 0.00000000)
		(3.48000000 0.12777822 0.00000000)
		(3.50000000 0.12777822 0.00000000)
		(3.52000000 0.12777822 0.00000000)
		(3.54000000 0.12777822 0.00000000)
		(3.56000000 0.12777822 0.00000000)
		(3.58000000 0.12777822 0.00000000)
		(3.60000000 0.12777822 0.00000000)
		(3.62000000 0.12777822 0.00000000)
		(3.64000000 0.12777822 0.00000000)
		(3.66000000 0.12777822 0.00000000)
		(3.68000000 0.12777822 0.00000000)
		(3.70000000 0.12777822 0.00000000)
		(3.72000000 0.12777822 0.00000000)
		(3.74000000 0.12777822 0.00000000)
		(3.76000000 0.12777822 0.00000000)
		(3.78000000 0.12777822 0.00000000)
		(3.80000000 0.12777822 0.00000000)
		(3.82000000 0.12777822 0.00000000)
		(3.84000000 0.12777822 0.00000000)
		(3.86000000 0.12777822 0.00000000)
		(3.88000000 0.12777822 0.00000000)
		(3.90000000 0.12777822 0.00000000)
		(3.92000000 0.12777822 0.00000000)
		(3.94000000 0.12777822 0.00000000)
		(3.96000000 0.12777822 0.00000000)
		(3.98000000 0.12777822 0.00000000)
		(4.00000000 0.12777822 0.00000000)
	)
	polyLine 4 5
	(
		(-1.00000000 -0.24474149 0.10000000)
		(-0.98000000 -0.24474149 0.10000000)
		(-0.96000000 -0.24474149 0.10000000)
		(-0.94000000 -0.24474149 0.10000000)
		(-0.92000000 -0.24474149 0.10000000)
		(-0.90000000 -0.24474149 0.10000000)
		(-0.88000000 -0.24474149 0.10000000)
		(-0.86000000 -0.24474149 0.10000000)
		(-0.84000000 -0.24474149 0.10000000)
		(-0.82000000 -0.24474149 0.10000000)
		(-0.80000000 -0.24474149 0.10000000)
		(-0.78000000 -0.24474149 0.10000000)
		(-0.76000000 -0.24474149 0.10000000)
		(-0.74000000 -0.24474149 0.10000000)
		(-0.72000000 -0.24474149 0.10000000)
		(-0.70000000 -0.24474149 0.10000000)
		(-0.68000000 -0.24474149 0.10000000)
		(-0.66000000 -0.24474149 0.10000000)
		(-0.64000000 -0.24474149 0.10000000)
		(-0.62000000 -0.24474149 0.10000000)
		(-0.60000000 -0.24474149 0.10000000)
		(-0.58000000 -0.24474149 0.10000000)
		(-0.56000000 -0.24474149 0.10000000)
		(-0.54000000 -0.24474149 0.10000000)
		(-0.52000000 -0.24474149 0.10000000)
		(-0.50000000 -0.24474149 0.10000000)
		(-0.48000000 -0.24474149 0.10000000)
		(-0.46000000 -0.24474149 0.10000000)
		(-0.44000000 -0.24474149 0.10000000)
		(-0.42000000 -0.24474149 0.10000000)
		(-0.40000000 -0.24474149 0.10000000)
		(-0.38000000 -0.24474149 0.10000000)
		(-0.36000000 -0.24474149 0.10000000)
		(-0.34000000 -0.24474149 0.10000000)
		(-0.32000000 -0.24474149 0.10000000)
		(-0.30000000 -0.24474149 0.10000000)
		(-0.28000000 -0.24474149 0.10000000)
		(-0.26000000 -0.24474149 0.10000000)
		(-0.24000000 -0.24474149 0.10000000)
		(-0.22000000 -0.24474149 0.10000000)
		(-0.20000000 -0.24474149 0.10000000)
		(-0.18000000 -0.24474149 0.10000000)
		(-0.16000000 -0.24474149 0.10000000)
		(-0.14000000 -0.24474149 0.10000000)
		(-0.12000000 -0.24474149 0.10000000)
		(-0.10000000 -0.24474149 0.10000000)
		(-0.08162011 -0.24478340 0.10000000)
		(-0.06324022 -0.24490915 0.10000000)
		(-0.04486034 -0.24511872 0.10000000)
		(-0.02648045 -0.24541212 0.10000000)
		(-0.00810056 -0.24578935 0.10000000)
		(0.01027933 -0.24625041 0.10000000)
		(0.02865922 -0.24679529 0.10000000)
		(0.04703911 -0.24742401 0.10000000)
		(0.06541899 -0.24813655 0.10000000)
		(0.08379888 -0.24893293 0.10000000)
		(0.10055866 -0.24711736 0.10000000)
		(0.11731844 -0.24442489 0.10000000)
		(0.13407821 -0.24086506 0.10000000)
		(0.15083799 -0.23645051 0.10000000)
		(0.16759777 -0.23119691 0.10000000)
		(0.18435754 -0.22512288 0.10000000)
		(0.20111732 -0.21825000 0.10000000)
		(0.21787709 -0.21060264 0.10000000)
		(0.23463687 -0.20220795 0.10000000)
		(0.25139665 -0.19309572 0.10000000)
		(0.26815642 -0.18329827 0.10000000)
		(0.28491620 -0.17285038 0.10000000)
		(0.30167598 -0.16178912 0.10000000)
		(0.31843575 -0.15015374 0.10000000)
		(0.33519553 -0.13798554 0.10000000)
		(0.35195531 -0.12532768 0.10000000)
		(0.36871508 -0.11222509 0.10000000)
		(0.38547486 -0.09872427 0.10000000)
		(0.40223464 -0.08487312 0.10000000)
		(0.41899441 -0.07072079 0.10000000)
		(0.43575419 -0.05631750 0.10000000)
		(0.45251397 -0.04171437 0.10000000)
		(0.46927374 -0.02696321 0.10000000)
		(0.48603352 -0.01211637 0.10000000)
		(0.50279330 0.00277346 0.10000000)
		(0.51955307 0.01765345 0.10000000)
		(0.53631285 0.03247080 0.10000000)
		(0.55307263 0.04717292 0.10000000)
		(0.56983240 0.06170765 0.10000000)
		(0.58659218 0.07602341 0.10000000)
		(0.60335196 0.09006939 0.10000000)
		(0.62011173 0.10379575 0.10000000)
		(0.63687151 0.11715379 0.10000000)
		(0.65363128 0.13009611 0.10000000)
		(0.67039106 0.14257677 0.10000000)
		(0.68715084 0.15455149 0.10000000)
		(0.70391061 0.16597777 0.10000000)
		(0.72067039 0.17681507 0.10000000)
		(0.73743017 0.18702494 0.10000000)
		(0.75418994 0.19657114 0.10000000)
		(0.77094972 0.20541979 0.10000000)
		(0.78770950 0.21353950 0.10000000)
		(0.80446927 0.22090146 0.10000000)
		(0.82122905 0.22747953 0.10000000)
		(0.83798883 0.23325038 0.10000000)
		(0.85474860 0.23819353 0.10000000)
		(0.87150838 0.24229144 0.10000000)
		(0.88826816 0.24552956 0.10000000)
		(0.90502793 0.24789640 0.10000000)
		(0.92178771 0.24938358 0.10000000)
		(0.93854749 0.24998580 0.10000000)
		(0.95530726 0.24970093 0.10000000)
		(0.97206704 0.24852998 0.10000000)
		(0.98882682 0.24647712 0.10000000)
		(1.00558659 0.24354961 0.10000000)
		(1.02234637 0.23975786 0.10000000)
		(1.03910615 0.23511531 0.10000000)
		(1.05586592 0.22963845 0.10000000)
		(1.07262570 0.22334670 0.10000000)
		(1.08938547 0.21626239 0.10000000)
		(1.10614525 0.20841066 0.10000000)
		(1.12290503 0.19981938 0.10000000)
		(1.13966480 0.19051902 0.10000000)
		(1.15642458 0.18054260 0.10000000)
		(1.17318436 0.16992551 0.10000000)
		(1.18994413 0.15870544 0.10000000)
		(1.20670391 0.14692219 0.10000000)
		(1.22346369 0.13461757 0.10000000)
		(1.24022346 0.12183526 0.10000000)
		(1.25698324 0.10862061 0.10000000)
		(1.27374302 0.09502052 0.10000000)
		(1.29050279 0.08108324 0.10000000)
		(1.30726257 0.06685823 0.10000000)
		(1.32402235 0.05239597 0.10000000)
		(1.34078212 0.03774778 0.10000000)
		(1.35754190 0.02296564 0.10000000)
		(1.37430168 0.00810200 0.10000000)
		(1.39106145 -0.00679038 0.10000000)
		(1.40782123 -0.02165867 0.10000000)
		(1.42458101 -0.03645010 0.10000000)
		(1.44134078 -0.05111219 0.10000000)
		(1.45810056 -0.06559290 0.10000000)
		(1.47486034 -0.07984085 0.10000000)
		(1.49162011 -0.09380549 0.10000000)
		(1.50837989 -0.10743725 0.10000000)
		(1.52513966 -0.12068776 0.10000000)
		(1.54189944 -0.13351000 0.10000000)
		(1.55865922 -0.14585848 0.10000000)
		(1.57541899 -0.15768937 0.10000000)
		(1.59217877 -0.16896069 0.10000000)
		(1.60893855 -0.17963245 0.10000000)
		(1.62569832 -0.18966677 0.10000000)
		(1.64245810 -0.19902804 0.10000000)
		(1.65921788 -0.20768306 0.10000000)
		(1.67597765 -0.21560110 0.10000000)
		(1.69273743 -0.22275406 0.10000000)
		(1.70949721 -0.22911658 0.10000000)
		(1.72625698 -0.23466606 0.10000000)
		(1.74301676 -0.23938281 0.10000000)
		(1.75977654 -0.24325011 0.10000000)
		(1.77653631 -0.24625421 0.10000000)
		(1.79329609 -0.24838447 0.10000000)
		(1.81005587 -0.24963332 0.10000000)
		(1.82681564 -0.24999634 0.10000000)
		(1.84357542 -0.24947223 0.10000000)
		(1.86033520 -0.24806286 0.10000000)
		(1.87709497 -0.24577322 0.10000000)
		(1.89385475 -0.24261144 0.10000000)
		(1.91061453 -0.23858874 0.10000000)
		(1.92737430 -0.23371939 0.10000000)
		(1.94413408 -0.22802068 0.10000000)
		(1.96089385 -0.22151283 0.10000000)
		(1.97765363 -0.21421892 0.10000000)
		(1.99441341 -0.20616485 0.10000000)
		(2.01117318 -0.19737919 0.10000000)
		(2.02793296 -0.18789312 0.10000000)
		(2.04469274 -0.17774030 0.10000000)
		(2.06145251 -0.16695676 0.10000000)
		(2.07821229 -0.15558077 0.10000000)
		(2.09497207 -0.14365268 0.10000000)
		(2.11173184 -0.13121484 0.10000000)
		(2.12849162 -0.11831138 0.10000000)
		(2.14525140 -0.10498808 0.10000000)
		(2.16201117 -0.09129222 0.10000000)
		(2.17877095 -0.07727241 0.10000000)
		(2.19553073 -0.06297840 0.10000000)
		(2.21229050 -0.04846090 0.10000000)
		(2.22905028 -0.03377144 0.10000000)
		(2.24581006 -0.01896213 0.10000000)
		(2.26256983 -0.00408554 0.10000000)
		(2.27932961 0.01080555 0.10000000)
		(2.29608939 0.02565830 0.10000000)
		(2.31284916 0.04041999 0.10000000)
		(2.32960894 0.05503826 0.10000000)
		(2.34636872 0.06946121 0.10000000)
		(2.36312849 0.08363768 0.10000000)
		(2.37988827 0.09751736 0.10000000)
		(2.39664804 0.11105099 0.10000000)
		(2.41340782 0.12419055 0.10000000)
		(2.43016760 0.13688942 0.10000000)
		(2.44692737 0.14910252 0.10000000)
		(2.46368715 0.16078653 0.10000000)
		(2.48044693 0.17189997 0.10000000)
		(2.49720670 0.18240342 0.10000000)
		(2.51396648 0.19225961 0.10000000)
		(2.53072626 0.20143354 0.10000000)
		(2.54748603 0.20989268 0.10000000)
		(2.56424581 0.21760701 0.10000000)
		(2.58100559 0.22454914 0.10000000)
		(2.59776536 0.23069445 0.10000000)
		(2.61452514 0.23602113 0.10000000)
		(2.63128492 0.24051027 0.10000000)
		(2.64804469 0.24414595 0.10000000)
		(2.66480447 0.24691527 0.10000000)
		(2.68156425 0.24880839 0.10000000)
		(2.69832402 0.24981860 0.10000000)
		(2.71508380 0.24994232 0.10000000)
		(2.73184358 0.24917910 0.10000000)
		(2.74860335 0.24753166 0.10000000)
		(2.76536313 0.24500584 0.10000000)
		(2.78212291 0.24161060 0.10000000)
		(2.79888268 0.23735799 0.10000000)
		(2.81564246 0.23226311 0.10000000)
		(2.83240223 0.22634403 0.10000000)
		(2.84916201 0.21962175 0.10000000)
		(2.86592179 0.21212013 0.10000000)
		(2.88268156 0.20386580 0.10000000)
		(2.89944134 0.19488803 0.10000000)
		(2.91620112 0.18521869 0.10000000)
		(2.93296089 0.17489210 0.10000000)
		(2.95166480 0.16594046 0.10000000)
		(2.97036872 0.15793110 0.10000000)
		(2.98907263 0.15086402 0.10000000)
		(3.00777654 0.14473922 0.10000000)
		(3.02648045 0.13955669 0.10000000)
		(3.04518436 0.13531644 0.10000000)
		(3.06388827 0.13201847 0.10000000)
		(3.08259218 0.12966278 0.10000000)
		(3.10129609 0.12824936 0.10000000)
		(3.12000000 0.12777822 0.10000000)
		(3.14000000 0.12777822 0.10000000)
		(3.16000000 0.12777822 0.10000000)
		(3.18000000 0.12777822 0.10000000)
		(3.20000000 0.12777822 0.10000000)
		(3.22000000 0.12777822 0.10000000)
		(3.24000000 0.12777822 0.10000000)
		(3.26000000 0.12777822 0.10000000)
		(3.28000000 0.12777822 0.10000000)
		(3.30000000 0.12777822 0.10000000)
		(3.32000000 0.12777822 0.10000000)
		(3.34000000 0.12777822 0.10000000)
		(3.36000000 0.12777822 0.10000000)
		(3.38000000 0.12777822 0.10000000)
		(3.40000000 0.12777822 0.10000000)
		(3.42000000 0.12777822 0.10000000)
		(3.44000000 0.12777822 0.10000000)
		(3.46000000 0.12777822 0.10000000)
		(3.48000000 0.12777822 0.10000000)
		(3.50000000 0.12777822 0.10000000)
		(3.52000000 0.12777822 0.10000000)
		(3.54000000 0.12777822 0.10000000)
		(3.56000000 0.12777822 0.10000000)
		(3.58000000 0.12777822 0.10000000)
		(3.60000000 0.12777822 0.10000000)
		(3.62000000 0.12777822 0.10000000)
		(3.64000000 0.12777822 0.10000000)
		(3.66000000 0.12777822 0.10000000)
		(3.68000000 0.12777822 0.10000000)
		(3.70000000 0.12777822 0.10000000)
		(3.72000000 0.12777822 0.10000000)
		(3.74000000 0.12777822 0.10000000)
		(3.76000000 0.12777822 0.10000000)
		(3.78000000 0.12777822 0.10000000)
		(3.80000000 0.12777822 0.10000000)
		(3.82000000 0.12777822 0.10000000)
		(3.84000000 0.12777822 0.10000000)
		(3.86000000 0.12777822 0.10000000)
		(3.88000000 0.12777822 0.10000000)
		(3.90000000 0.12777822 0.10000000)
		(3.92000000 0.12777822 0.10000000)
		(3.94000000 0.12777822 0.10000000)
		(3.96000000 0.12777822 0.10000000)
		(3.98000000 0.12777822 0.10000000)
		(4.00000000 0.12777822 0.10000000)
	)
	polyLine 3 2
	(
		(-1.00000000 0.25525851 0.00000000)
		(-0.98000000 0.25729711 0.00000000)
		(-0.96000000 0.25933572 0.00000000)
		(-0.94000000 0.26137432 0.00000000)
		(-0.92000000 0.26341292 0.00000000)
		(-0.90000000 0.26545152 0.00000000)
		(-0.88000000 0.26749013 0.00000000)
		(-0.86000000 0.26952873 0.00000000)
		(-0.84000000 0.27156733 0.00000000)
		(-0.82000000 0.27360593 0.00000000)
		(-0.80000000 0.27564454 0.00000000)
		(-0.78000000 0.27768314 0.00000000)
		(-0.76000000 0.27972174 0.00000000)
		(-0.74000000 0.28176034 0.00000000)
		(-0.72000000 0.28379895 0.00000000)
		(-0.70000000 0.28583755 0.00000000)
		(-0.68000000 0.28787615 0.00000000)
		(-0.66000000 0.28991475 0.00000000)
		(-0.64000000 0.29195336 0.00000000)
		(-0.62000000 0.29399196 0.00000000)
		(-0.60000000 0.29603056 0.00000000)
		(-0.58000000 0.29806916 0.00000000)
		(-0.56000000 0.30010777 0.00000000)
		(-0.54000000 0.30214637 0.00000000)
		(-0.52000000 0.30418497 0.00000000)
		(-0.50000000 0.30622357 0.00000000)
		(-0.48000000 0.30826218 0.00000000)
		(-0.46000000 0.31030078 0.00000000)
		(-0.44000000 0.31233938 0.00000000)
		(-0.42000000 0.31437798 0.00000000)
		(-0.40000000 0.31641659 0.00000000)
		(-0.38000000 0.31845519 0.00000000)
		(-0.36000000 0.32049379 0.00000000)
		(-0.34000000 0.32253240 0.00000000)
		(-0.32000000 0.32457100 0.00000000)
		(-0.30000000 0.32660960 0.00000000)
		(-0.28000000 0.32864820 0.00000000)
		(-0.26000000 0.33068681 0.00000000)
		(-0.24000000 0.33272541 0.00000000)
		(-0.22000000 0.33476401 0.00000000)
		(-0.20000000 0.33680261 0.00000000)
		(-0.18000000 0.33884122 0.00000000)
		(-0.16000000 0.34087982 0.00000000)
		(-0.14000000 0.34291842 0.00000000)
		(-0.12000000 0.34495702 0.00000000)
		(-0.10000000 0.34699563 0.00000000)
		(-0.08162011 0.34843693 0.00000000)
		(-0.06324022 0.34968402 0.00000000)
		(-0.04486034 0.35073691 0.00000000)
		(-0.02648045 0.35159559 0.00000000)
		(-0.00810056 0.35226006 0.00000000)
		(0.01027933 0.35273033 0.00000000)
		(0.02865922 0.35300639 0.00000000)
		(0.04703911 0.35308825 0.00000000)
		(0.06541899 0.35297590 0.00000000)
		(0.08379888 0.35266934 0.00000000)
		(0.10055866 0.35374388 0.00000000)
		(0.11731844 0.35533741 0.00000000)
		(0.13407821 0.35744429 0.00000000)
		(0.15083799 0.36005704 0.00000000)
		(0.16759777 0.36316638 0.00000000)
		(0.18435754 0.36676129 0.00000000)
		(0.20111732 0.37082899 0.00000000)
		(0.21787709 0.37535507 0.00000000)
		(0.23463687 0.38032346 0.00000000)
		(0.25139665 0.38571653 0.00000000)
		(0.26815642 0.39151513 0.00000000)
		(0.28491620 0.39769871 0.00000000)
		(0.30167598 0.40424530 0.00000000)
		(0.31843575 0.41113168 0.00000000)
		(0.33519553 0.41833342 0.00000000)
		(0.35195531 0.42582496 0.00000000)
		(0.36871508 0.43357971 0.00000000)
		(0.38547486 0.44157016 0.00000000)
		(0.40223464 0.44976795 0.00000000)
		(0.41899441 0.45814399 0.00000000)
		(0.43575419 0.46666855 0.00000000)
		(0.45251397 0.47531140 0.00000000)
		(0.46927374 0.48404185 0.00000000)
		(0.48603352 0.49282894 0.00000000)
		(0.50279330 0.50164147 0.00000000)
		(0.51955307 0.51044817 0.00000000)
		(0.53631285 0.51921780 0.00000000)
		(0.55307263 0.52791924 0.00000000)
		(0.56983240 0.53652160 0.00000000)
		(0.58659218 0.54499436 0.00000000)
		(0.60335196 0.55330746 0.00000000)
		(0.62011173 0.56143139 0.00000000)
		(0.63687151 0.56933733 0.00000000)
		(0.65363128 0.57699723 0.00000000)
		(0.67039106 0.58438389 0.00000000)
		(0.68715084 0.59147112 0.00000000)
		(0.70391061 0.59823375 0.00000000)
		(0.72067039 0.60464779 0.00000000)
		(0.73743017 0.61069049 0.00000000)
		(0.75418994 0.61634040 0.00000000)
		(0.77094972 0.62157746 0.00000000)
		(0.78770950 0.62638310 0.00000000)
		(0.80446927 0.63074027 0.00000000)
		(0.82122905 0.63463349 0.00000000)
		(0.83798883 0.63804896 0.00000000)
		(0.85474860 0.64097456 0.00000000)
		(0.87150838 0.64339990 0.00000000)
		(0.88826816 0.64531638 0.00000000)
		(0.90502793 0.64671719 0.00000000)
		(0.92178771 0.64759738 0.00000000)
		(0.93854749 0.64795380 0.00000000)
		(0.95530726 0.64778520 0.00000000)
		(0.97206704 0.64709218 0.00000000)
		(0.98882682 0.64587719 0.00000000)
		(1.00558659 0.64414455 0.00000000)
		(1.02234637 0.64190041 0.00000000)
		(1.03910615 0.63915272 0.00000000)
		(1.05586592 0.63591125 0.00000000)
		(1.07262570 0.63218748 0.00000000)
		(1.08938547 0.62799464 0.00000000)
		(1.10614525 0.62334760 0.00000000)
		(1.12290503 0.61826286 0.00000000)
		(1.13966480 0.61275846 0.00000000)
		(1.15642458 0.60685393 0.00000000)
		(1.17318436 0.60057022 0.00000000)
		(1.18994413 0.59392963 0.00000000)
		(1.20670391 0.58695572 0.00000000)
		(1.22346369 0.57967325 0.00000000)
		(1.24022346 0.57210806 0.00000000)
		(1.25698324 0.56428698 0.00000000)
		(1.27374302 0.55623778 0.00000000)
		(1.29050279 0.54798902 0.00000000)
		(1.30726257 0.53956996 0.00000000)
		(1.32402235 0.53101049 0.00000000)
		(1.34078212 0.52234098 0.00000000)
		(1.35754190 0.51359219 0.00000000)
		(1.37430168 0.50479516 0.00000000)
		(1.39106145 0.49598112 0.00000000)
		(1.40782123 0.48718134 0.00000000)
		(1.42458101 0.47842705 0.00000000)
		(1.44134078 0.46974931 0.00000000)
		(1.45810056 0.46117892 0.00000000)
		(1.47486034 0.45274628 0.00000000)
		(1.49162011 0.44448133 0.00000000)
		(1.50837989 0.43641339 0.00000000)
		(1.52513966 0.42857109 0.00000000)
		(1.54189944 0.42098226 0.00000000)
		(1.55865922 0.41367383 0.00000000)
		(1.57541899 0.40667173 0.00000000)
		(1.59217877 0.40000081 0.00000000)
		(1.60893855 0.39368475 0.00000000)
		(1.62569832 0.38774595 0.00000000)
		(1.64245810 0.38220549 0.00000000)
		(1.65921788 0.37708303 0.00000000)
		(1.67597765 0.37239674 0.00000000)
		(1.69273743 0.36816327 0.00000000)
		(1.70949721 0.36439762 0.00000000)
		(1.72625698 0.36111317 0.00000000)
		(1.74301676 0.35832156 0.00000000)
		(1.75977654 0.35603271 0.00000000)
		(1.77653631 0.35425473 0.00000000)
		(1.79329609 0.35299394 0.00000000)
		(1.81005587 0.35225481 0.00000000)
		(1.82681564 0.35203996 0.00000000)
		(1.84357542 0.35235015 0.00000000)
		(1.86033520 0.35318429 0.00000000)
		(1.87709497 0.35453941 0.00000000)
		(1.89385475 0.35641071 0.00000000)
		(1.91061453 0.35879154 0.00000000)
		(1.92737430 0.36167345 0.00000000)
		(1.94413408 0.36504623 0.00000000)
		(1.96089385 0.36889789 0.00000000)
		(1.97765363 0.37321478 0.00000000)
		(1.99441341 0.37798158 0.00000000)
		(2.01117318 0.38318136 0.00000000)
		(2.02793296 0.38879568 0.00000000)
		(2.04469274 0.39480461 0.00000000)
		(2.06145251 0.40118684 0.00000000)
		(2.07821229 0.40791971 0.00000000)
		(2.09497207 0.41497933 0.00000000)
		(2.11173184 0.42234065 0.00000000)
		(2.12849162 0.42997755 0.00000000)
		(2.14525140 0.43786293 0.00000000)
		(2.16201117 0.44596880 0.00000000)
		(2.17877095 0.45426641 0.00000000)
		(2.19553073 0.46272631 0.00000000)
		(2.21229050 0.47131847 0.00000000)
		(2.22905028 0.48001242 0.00000000)
		(2.24581006 0.48877728 0.00000000)
		(2.26256983 0.49758198 0.00000000)
		(2.27932961 0.50639525 0.00000000)
		(2.29608939 0.51518583 0.00000000)
		(2.31284916 0.52392252 0.00000000)
		(2.32960894 0.53257433 0.00000000)
		(2.34636872 0.54111054 0.00000000)
		(2.36312849 0.54950086 0.00000000)
		(2.37988827 0.55771554 0.00000000)
		(2.39664804 0.56572540 0.00000000)
		(2.41340782 0.57350203 0.00000000)
		(2.43016760 0.58101784 0.00000000)
		(2.44692737 0.58824615 0.00000000)
		(2.46368715 0.59516132 0.00000000)
		(2.48044693 0.60173880 0.00000000)
		(2.49720670 0.60795525 0.00000000)
		(2.51396648 0.61378862 0.00000000)
		(2.53072626 0.61921821 0.00000000)