/*--------------------------------*- C++ -*----------------------------------*\\
/*--------------------------------*- C++ -*----------------------------------*\\
| =========                 |                                                 |
| \\\\      /  F ield         | OpenFOAM: The Open Source CFD Toolbox           |
|  \\\\    /   O peration     | Version:  v2012                                 |
|   \\\\  /    A nd           | Website:  www.openfoam.com                      |
|    \\\\/     M anipulation  |                                                 |
\\*---------------------------------------------------------------------------*/
FoamFile
{
    version     2.0;
    format      ascii;
    class       dictionary;
    object      blockMeshDict;
}
// * * * * * * * * * * * * * * * * * * * * * * * * * * * * * * * * * * * * * //

scale   0.01;

xmin -1;
xmax 5;
ymin 0;
ymax 0.5;
zmin 0;
zmax 0.1;

vertices
(
    (-1.00000000 -0.14847348 0.00000000)
    (4.00000000 -0.06933971 0.00000000)
    (4.00000000 0.43066029 0.00000000)
    (-1.00000000 0.35152652 0.00000000)
    (-1.00000000 -0.14847348 0.10000000)
    (4.00000000 -0.06933971 0.10000000)
    (4.00000000 0.43066029 0.10000000)
    (-1.00000000 0.35152652 0.10000000)
);

blocks
(
    hex (0 1 2 3 4 5 6 7) (200 20 1) simpleGrading (1 1 1)
);

edges
(
	polyLine 0 1
	(
		(-1.00000000 -0.14847348 0.00000000)
		(-0.98000000 -0.14847348 0.00000000)
		(-0.96000000 -0.14847348 0.00000000)
		(-0.94000000 -0.14847348 0.00000000)
		(-0.92000000 -0.14847348 0.00000000)
		(-0.90000000 -0.14847348 0.00000000)
		(-0.88000000 -0.14847348 0.00000000)
		(-0.86000000 -0.14847348 0.00000000)
		(-0.84000000 -0.14847348 0.00000000)
		(-0.82000000 -0.14847348 0.00000000)
		(-0.80000000 -0.14847348 0.00000000)
		(-0.78000000 -0.14847348 0.00000000)
		(-0.76000000 -0.14847348 0.00000000)
		(-0.74000000 -0.14847348 0.00000000)
		(-0.72000000 -0.14847348 0.00000000)
		(-0.70000000 -0.14847348 0.00000000)
		(-0.68000000 -0.14847348 0.00000000)
		(-0.66000000 -0.14847348 0.00000000)
		(-0.64000000 -0.14847348 0.00000000)
		(-0.62000000 -0.14847348 0.00000000)
		(-0.60000000 -0.14847348 0.00000000)
		(-0.58000000 -0.14847348 0.00000000)
		(-0.56000000 -0.14847348 0.00000000)
		(-0.54000000 -0.14847348 0.00000000)
		(-0.52000000 -0.14847348 0.00000000)
		(-0.50000000 -0.14847348 0.00000000)
		(-0.48000000 -0.14847348 0.00000000)
		(-0.46000000 -0.14847348 0.00000000)
		(-0.44000000 -0.14847348 0.00000000)
		(-0.42000000 -0.14847348 0.00000000)
		(-0.40000000 -0.14847348 0.00000000)
		(-0.38000000 -0.14847348 0.00000000)
		(-0.36000000 -0.14847348 0.00000000)
		(-0.34000000 -0.14847348 0.00000000)
		(-0.32000000 -0.14847348 0.00000000)
		(-0.30000000 -0.14847348 0.00000000)
		(-0.28000000 -0.14847348 0.00000000)
		(-0.26000000 -0.14847348 0.00000000)
		(-0.24000000 -0.14847348 0.00000000)
		(-0.22000000 -0.14847348 0.00000000)
		(-0.20000000 -0.14847348 0.00000000)
		(-0.18000000 -0.14847348 0.00000000)
		(-0.16000000 -0.14847348 0.00000000)
		(-0.14000000 -0.14847348 0.00000000)
		(-0.12000000 -0.14847348 0.00000000)
		(-0.10000000 -0.14847348 0.00000000)
		(-0.08162011 -0.14906079 0.00000000)
		(-0.06324022 -0.15082273 0.00000000)
		(-0.04486034 -0.15375930 0.00000000)
		(-0.02648045 -0.15787050 0.00000000)
		(-0.00810056 -0.16315632 0.00000000)
		(0.01027933 -0.16961677 0.00000000)
		(0.02865922 -0.17725184 0.00000000)
		(0.04703911 -0.18606154 0.00000000)
		(0.06541899 -0.19604587 0.00000000)
		(0.08379888 -0.20720483 0.00000000)
		(0.10055866 -0.21625811 0.00000000)
		(0.11731844 -0.22430529 0.00000000)
		(0.13407821 -0.23130895 0.00000000)
		(0.15083799 -0.23723649 0.00000000)
		(0.16759777 -0.24206034 0.00000000)
		(0.18435754 -0.24575807 0.00000000)
		(0.20111732 -0.24831246 0.00000000)
		(0.21787709 -0.24971163 0.00000000)
		(0.23463687 -0.24994907 0.00000000)
		(0.25139665 -0.24902368 0.00000000)
		(0.26815642 -0.24693977 0.00000000)
		(0.28491620 -0.24370703 0.00000000)
		(0.30167598 -0.23934049 0.00000000)
		(0.31843575 -0.23386048 0.00000000)
		(0.33519553 -0.22729248 0.00000000)
		(0.35195531 -0.21966706 0.00000000)
		(0.36871508 -0.21101968 0.00000000)
		(0.38547486 -0.20139058 0.00000000)
		(0.40223464 -0.19082456 0.00000000)
		(0.41899441 -0.17937078 0.00000000)
		(0.43575419 -0.16708250 0.00000000)
		(0.45251397 -0.15401692 0.00000000)
		(0.46927374 -0.14023481 0.00000000)
		(0.48603352 -0.12580028 0.00000000)
		(0.50279330 -0.11078050 0.00000000)
		(0.51955307 -0.09524534 0.00000000)
		(0.53631285 -0.07926707 0.00000000)
		(0.55307263 -0.06292003 0.00000000)
		(0.56983240 -0.04628027 0.00000000)
		(0.58659218 -0.02942519 0.00000000)
		(0.60335196 -0.01243323 0.00000000)
		(0.62011173 0.00461658 0.00000000)
		(0.63687151 0.02164491 0.00000000)
		(0.65363128 0.03857254 0.00000000)
		(0.67039106 0.05532073 0.00000000)
		(0.68715084 0.07181154 0.00000000)
		(0.70391061 0.08796827 0.00000000)
		(0.72067039 0.10371575 0.00000000)
		(0.73743017 0.11898071 0.00000000)
		(0.75418994 0.13369214 0.00000000)
		(0.77094972 0.14778160 0.00000000)
		(0.78770950 0.16118354 0.00000000)
		(0.80446927 0.17383560 0.00000000)
		(0.82122905 0.18567894 0.00000000)
		(0.83798883 0.19665845 0.00000000)
		(0.85474860 0.20672305 0.00000000)
		(0.87150838 0.21582592 0.00000000)
		(0.88826816 0.22392470 0.00000000)
		(0.90502793 0.23098173 0.00000000)
		(0.92178771 0.23696417 0.00000000)
		(0.93854749 0.24184418 0.00000000)
		(0.95530726 0.24559907 0.00000000)
		(0.97206704 0.24821136 0.00000000)
		(0.98882682 0.24966891 0.00000000)
		(1.00558659 0.24996493 0.00000000)
		(1.02234637 0.24909805 0.00000000)
		(1.03910615 0.24707229 0.00000000)
		(1.05586592 0.24389708 0.00000000)
		(1.07262570 0.23958720 0.00000000)
		(1.08938547 0.23416269 0.00000000)
		(1.10614525 0.22764880 0.00000000)
		(1.12290503 0.22007582 0.00000000)
		(1.13966480 0.21147898 0.00000000)
		(1.15642458 0.20189829 0.00000000)
		(1.17318436 0.19137831 0.00000000)
		(1.18994413 0.17996799 0.00000000)
		(1.20670391 0.16772041 0.00000000)
		(1.22346369 0.15469255 0.00000000)
		(1.24022346 0.14094501 0.00000000)
		(1.25698324 0.12654176 0.00000000)
		(1.27374302 0.11154980 0.00000000)
		(1.29050279 0.09603888 0.00000000)
		(1.30726257 0.08008117 0.00000000)
		(1.32402235 0.06375089 0.00000000)
		(1.34078212 0.04712403 0.00000000)
		(1.35754190 0.03027793 0.00000000)
		(1.37430168 0.01329097 0.00000000)
		(1.39106145 -0.00375782 0.00000000)
		(1.40782123 -0.02078913 0.00000000)
		(1.42458101 -0.03772372 0.00000000)
		(1.44134078 -0.05448281 0.00000000)
		(1.45810056 -0.07098843 0.00000000)
		(1.47486034 -0.08716380 0.00000000)
		(1.49162011 -0.10293365 0.00000000)
		(1.50837989 -0.11822463 0.00000000)
		(1.52513966 -0.13296560 0.00000000)
		(1.54189944 -0.14708797 0.00000000)
		(1.55865922 -0.16052605 0.00000000)
		(1.57541899 -0.17321732 0.00000000)
		(1.59217877 -0.18510273 0.00000000)
		(1.60893855 -0.19612700 0.00000000)
		(1.62569832 -0.20623883 0.00000000)
		(1.64245810 -0.21539118 0.00000000)
		(1.65921788 -0.22354147 0.00000000)
		(1.67597765 -0.23065178 0.00000000)
		(1.69273743 -0.23668904 0.00000000)
		(1.70949721 -0.24162516 0.00000000)
		(1.72625698 -0.24543717 0.00000000)
		(1.74301676 -0.24810734 0.00000000)
		(1.75977654 -0.24962325 0.00000000)
		(1.77653631 -0.24997784 0.00000000)
		(1.79329609 -0.24916947 0.00000000)
		(1.81005587 -0.24720189 0.00000000)
		(1.82681564 -0.24408426 0.00000000)
		(1.84357542 -0.23983108 0.00000000)
		(1.86033520 -0.23446215 0.00000000)
		(1.87709497 -0.22800243 0.00000000)
		(1.89385475 -0.22048198 0.00000000)
		(1.91061453 -0.21193579 0.00000000)
		(1.92737430 -0.20240362 0.00000000)
		(1.94413408 -0.19192981 0.00000000)
		(1.96089385 -0.18056309 0.00000000)
		(1.97765363 -0.16835634 0.00000000)
		(1.99441341 -0.15536635 0.00000000)
		(2.01117318 -0.14165355 0.00000000)
		(2.02793296 -0.12728174 0.00000000)
		(2.04469274 -0.11231779 0.00000000)
		(2.06145251 -0.09683130 0.00000000)
		(2.07821229 -0.08089432 0.00000000)
		(2.09497207 -0.06458100 0.00000000)
		(2.11173184 -0.04796724 0.00000000)
		(2.12849162 -0.03113031 0.00000000)
		(2.14525140 -0.01414856 0.00000000)
		(2.16201117 0.00289901 0.00000000)
		(2.17877095 0.01993310 0.00000000)
		(2.19553073 0.03687445 0.00000000)
		(2.21229050 0.05364425 0.00000000)
		(2.22905028 0.07016449 0.00000000)
		(2.24581006 0.08635830 0.00000000)
		(2.26256983 0.10215034 0.00000000)
		(2.27932961 0.11746716 0.00000000)
		(2.29608939 0.13223748 0.00000000)
		(2.31284916 0.14639261 0.00000000)
		(2.32960894 0.15986667 0.00000000)
		(2.34636872 0.17259699 0.00000000)
		(2.36312849 0.18452434 0.00000000)
		(2.37988827 0.19559323 0.00000000)
		(2.39664804 0.20575217 0.00000000)
		(2.41340782 0.21495390 0.00000000)
		(2.43016760 0.22315560 0.00000000)
		(2.44692737 0.23031912 0.00000000)
		(2.46368715 0.23641113 0.00000000)
		(2.48044693 0.24140329 0.00000000)
		(2.49720670 0.24527238 0.00000000)
		(2.51396648 0.24800039 0.00000000)
		(2.53072626 0.24957464 0.00000000)
		(2.54748603 0.24998780 0.00000000)
		(2.56424581 0.24923795 0.00000000)
		(2.58100559 0.24732857 0.00000000)
		(2.59776536 0.24426856 0.00000000)
		(2.61452514 0.24007214 0.00000000)
		(2.63128492 0.23475883 0.00000000)
		(2.64804469 0.22835337 0.00000000)
		(2.66480447 0.22088554 0.00000000)
		(2.68156425 0.21239010 0.00000000)
		(2.69832402 0.20290655 0.00000000)
		(2.71508380 0.19247903 0.00000000)
		(2.73184358 0.18115605 0.00000000)
		(2.74860335 0.16899027 0.00000000)
		(2.76536313 0.15603831 0.00000000)
		(2.78212291 0.14236042 0.00000000)
		(2.79888268 0.12802022 0.00000000)
		(2.81564246 0.11308444 0.00000000)
		(2.83240223 0.09762256 0.00000000)
		(2.84916201 0.08170652 0.00000000)
		(2.86592179 0.06541035 0.00000000)
		(2.88268156 0.04880988 0.00000000)
		(2.89944134 0.03198232 0.00000000)
		(2.91620112 0.01500598 0.00000000)
		(2.93296089 -0.00204017 0.00000000)
		(2.95166480 -0.01482708 0.00000000)
		(2.97036872 -0.02626801 0.00000000)
		(2.98907263 -0.03636294 0.00000000)
		(3.00777654 -0.04511188 0.00000000)
		(3.02648045 -0.05251483 0.00000000)
		(3.04518436 -0.05857178 0.00000000)
		(3.06388827 -0.06328275 0.00000000)
		(3.08259218 -0.06664773 0.00000000)
		(3.10129609 -0.06866672 0.00000000)
		(3.12000000 -0.06933971 0.00000000)
		(3.14000000 -0.06933971 0.00000000)
		(3.16000000 -0.06933971 0.00000000)
		(3.18000000 -0.06933971 0.00000000)
		(3.20000000 -0.06933971 0.00000000)
		(3.22000000 -0.06933971 0.00000000)
		(3.24000000 -0.06933971 0.00000000)
		(3.26000000 -0.06933971 0.00000000)
		(3.28000000 -0.06933971 0.00000000)
		(3.30000000 -0.06933971 0.00000000)
		(3.32000000 -0.06933971 0.00000000)
		(3.34000000 -0.06933971 0.00000000)
		(3.36000000 -0.06933971 0.00000000)
		(3.38000000 -0.06933971 0.00000000)
		(3.40000000 -0.06933971 0.00000000)
		(3.42000000 -0.06933971 0.00000000)
		(3.44000000 -0.06933971 0.00000000)
		(3.46000000 -0.06933971 0.00000000)
		(3.48000000 -0.06933971 0.00000000)
		(3.50000000 -0.06933971 0.00000000)
		(3.52000000 -0.06933971 0.00000000)
		(3.54000000 -0.06933971 0.00000000)
		(3.56000000 -0.06933971 0.00000000)
		(3.58000000 -0.06933971 0.00000000)
		(3.60000000 -0.06933971 0.00000000)
		(3.62000000 -0.06933971 0.00000000)
		(3.64000000 -0.06933971 0.00000000)
		(3.66000000 -0.06933971 0.00000000)
		(3.68000000 -0.06933971 0.00000000)
		(3.70000000 -0.06933971 0.00000000)
		(3.72000000 -0.06933971 0.00000000)
		(3.74000000 -0.06933971 0.00000000)
		(3.76000000 -0.06933971 0.00000000)
		(3.78000000 -0.06933971 0.00000000)
		(3.80000000 -0.06933971 0.00000000)
		(3.82000000 -0.06933971 0.00000000)
		(3.84000000 -0.06933971 0.00000000)
		(3.86000000 -0.06933971 0.00000000)
		(3.88000000 -0.06933971 0.00000000)
		(3.90000000 -0.06933971 0.00000000)
		(3.92000000 -0.06933971 0.00000000)
		(3.94000000 -0.06933971 0.00000000)
		(3.96000000 -0.06933971 0.00000000)
		(3.98000000 -0.06933971 0.00000000)
		(4.00000000 -0.06933971 0.00000000)
	)
	polyLine 4 5
	(
		(-1.00000000 -0.14847348 0.10000000)
		(-0.98000000 -0.14847348 0.10000000)
		(-0.96000000 -0.14847348 0.10000000)
		(-0.94000000 -0.14847348 0.10000000)
		(-0.92000000 -0.14847348 0.10000000)
		(-0.90000000 -0.14847348 0.10000000)
		(-0.88000000 -0.14847348 0.10000000)
		(-0.86000000 -0.14847348 0.10000000)
		(-0.84000000 -0.14847348 0.10000000)
		(-0.82000000 -0.14847348 0.10000000)
		(-0.80000000 -0.14847348 0.10000000)
		(-0.78000000 -0.14847348 0.10000000)
		(-0.76000000 -0.14847348 0.10000000)
		(-0.74000000 -0.14847348 0.10000000)
		(-0.72000000 -0.14847348 0.10000000)
		(-0.70000000 -0.14847348 0.10000000)
		(-0.68000000 -0.14847348 0.10000000)
		(-0.66000000 -0.14847348 0.10000000)
		(-0.64000000 -0.14847348 0.10000000)
		(-0.62000000 -0.14847348 0.10000000)
		(-0.60000000 -0.14847348 0.10000000)
		(-0.58000000 -0.14847348 0.10000000)
		(-0.56000000 -0.14847348 0.10000000)
		(-0.54000000 -0.14847348 0.10000000)
		(-0.52000000 -0.14847348 0.10000000)
		(-0.50000000 -0.14847348 0.10000000)
		(-0.48000000 -0.14847348 0.10000000)
		(-0.46000000 -0.14847348 0.10000000)
		(-0.44000000 -0.14847348 0.10000000)
		(-0.42000000 -0.14847348 0.10000000)
		(-0.40000000 -0.14847348 0.10000000)
		(-0.38000000 -0.14847348 0.10000000)
		(-0.36000000 -0.14847348 0.10000000)
		(-0.34000000 -0.14847348 0.10000000)
		(-0.32000000 -0.14847348 0.10000000)
		(-0.30000000 -0.14847348 0.10000000)
		(-0.28000000 -0.14847348 0.10000000)
		(-0.26000000 -0.14847348 0.10000000)
		(-0.24000000 -0.14847348 0.10000000)
		(-0.22000000 -0.14847348 0.10000000)
		(-0.20000000 -0.14847348 0.10000000)
		(-0.18000000 -0.14847348 0.10000000)
		(-0.16000000 -0.14847348 0.10000000)
		(-0.14000000 -0.14847348 0.10000000)
		(-0.12000000 -0.14847348 0.10000000)
		(-0.10000000 -0.14847348 0.10000000)
		(-0.08162011 -0.14906079 0.10000000)
		(-0.06324022 -0.15082273 0.10000000)
		(-0.04486034 -0.15375930 0.10000000)
		(-0.02648045 -0.15787050 0.10000000)
		(-0.00810056 -0.16315632 0.10000000)
		(0.01027933 -0.16961677 0.10000000)
		(0.02865922 -0.17725184 0.10000000)
		(0.04703911 -0.18606154 0.10000000)
		(0.06541899 -0.19604587 0.10000000)
		(0.08379888 -0.20720483 0.10000000)
		(0.10055866 -0.21625811 0.10000000)
		(0.11731844 -0.22430529 0.10000000)
		(0.13407821 -0.23130895 0.10000000)
		(0.15083799 -0.23723649 0.10000000)
		(0.16759777 -0.24206034 0.10000000)
		(0.18435754 -0.24575807 0.10000000)
		(0.20111732 -0.24831246 0.10000000)
		(0.21787709 -0.24971163 0.10000000)
		(0.23463687 -0.24994907 0.10000000)
		(0.25139665 -0.24902368 0.10000000)
		(0.26815642 -0.24693977 0.10000000)
		(0.28491620 -0.24370703 0.10000000)
		(0.30167598 -0.23934049 0.10000000)
		(0.31843575 -0.23386048 0.10000000)
		(0.33519553 -0.22729248 0.10000000)
		(0.35195531 -0.21966706 0.10000000)
		(0.36871508 -0.21101968 0.10000000)
		(0.38547486 -0.20139058 0.10000000)
		(0.40223464 -0.19082456 0.10000000)
		(0.41899441 -0.17937078 0.10000000)
		(0.43575419 -0.16708250 0.10000000)
		(0.45251397 -0.15401692 0.10000000)
		(0.46927374 -0.14023481 0.10000000)
		(0.48603352 -0.12580028 0.10000000)
		(0.50279330 -0.11078050 0.10000000)
		(0.51955307 -0.09524534 0.10000000)
		(0.53631285 -0.07926707 0.10000000)
		(0.55307263 -0.06292003 0.10000000)
		(0.56983240 -0.04628027 0.10000000)
		(0.58659218 -0.02942519 0.10000000)
		(0.60335196 -0.01243323 0.10000000)
		(0.62011173 0.00461658 0.10000000)
		(0.63687151 0.02164491 0.10000000)
		(0.65363128 0.03857254 0.10000000)
		(0.67039106 0.05532073 0.10000000)
		(0.68715084 0.07181154 0.10000000)
		(0.70391061 0.08796827 0.10000000)
		(0.72067039 0.10371575 0.10000000)
		(0.73743017 0.11898071 0.10000000)
		(0.75418994 0.13369214 0.10000000)
		(0.77094972 0.14778160 0.10000000)
		(0.78770950 0.16118354 0.10000000)
		(0.80446927 0.17383560 0.10000000)
		(0.82122905 0.18567894 0.10000000)
		(0.83798883 0.19665845 0.10000000)
		(0.85474860 0.20672305 0.10000000)
		(0.87150838 0.21582592 0.10000000)
		(0.88826816 0.22392470 0.10000000)
		(0.90502793 0.23098173 0.10000000)
		(0.92178771 0.23696417 0.10000000)
		(0.93854749 0.24184418 0.10000000)
		(0.95530726 0.24559907 0.10000000)
		(0.97206704 0.24821136 0.10000000)
		(0.98882682 0.24966891 0.10000000)
		(1.00558659 0.24996493 0.10000000)
		(1.02234637 0.24909805 0.10000000)
		(1.03910615 0.24707229 0.10000000)
		(1.05586592 0.24389708 0.10000000)
		(1.07262570 0.23958720 0.10000000)
		(1.08938547 0.23416269 0.10000000)
		(1.10614525 0.22764880 0.10000000)
		(1.12290503 0.22007582 0.10000000)
		(1.13966480 0.21147898 0.10000000)
		(1.15642458 0.20189829 0.10000000)
		(1.17318436 0.19137831 0.10000000)
		(1.18994413 0.17996799 0.10000000)
		(1.20670391 0.16772041 0.10000000)
		(1.22346369 0.15469255 0.10000000)
		(1.24022346 0.14094501 0.10000000)
		(1.25698324 0.12654176 0.10000000)
		(1.27374302 0.11154980 0.10000000)
		(1.29050279 0.09603888 0.10000000)
		(1.30726257 0.08008117 0.10000000)
		(1.32402235 0.06375089 0.10000000)
		(1.34078212 0.04712403 0.10000000)
		(1.35754190 0.03027793 0.10000000)
		(1.37430168 0.01329097 0.10000000)
		(1.39106145 -0.00375782 0.10000000)
		(1.40782123 -0.02078913 0.10000000)
		(1.42458101 -0.03772372 0.10000000)
		(1.44134078 -0.05448281 0.10000000)
		(1.45810056 -0.07098843 0.10000000)
		(1.47486034 -0.08716380 0.10000000)
		(1.49162011 -0.10293365 0.10000000)
		(1.50837989 -0.11822463 0.10000000)
		(1.52513966 -0.13296560 0.10000000)
		(1.54189944 -0.14708797 0.10000000)
		(1.55865922 -0.16052605 0.10000000)
		(1.57541899 -0.17321732 0.10000000)
		(1.59217877 -0.18510273 0.10000000)
		(1.60893855 -0.19612700 0.10000000)
		(1.62569832 -0.20623883 0.10000000)
		(1.64245810 -0.21539118 0.10000000)
		(1.65921788 -0.22354147 0.10000000)
		(1.67597765 -0.23065178 0.10000000)
		(1.69273743 -0.23668904 0.10000000)
		(1.70949721 -0.24162516 0.10000000)
		(1.72625698 -0.24543717 0.10000000)
		(1.74301676 -0.24810734 0.10000000)
		(1.75977654 -0.24962325 0.10000000)
		(1.77653631 -0.24997784 0.10000000)
		(1.79329609 -0.24916947 0.10000000)
		(1.81005587 -0.24720189 0.10000000)
		(1.82681564 -0.24408426 0.10000000)
		(1.84357542 -0.23983108 0.10000000)
		(1.86033520 -0.23446215 0.10000000)
		(1.87709497 -0.22800243 0.10000000)
		(1.89385475 -0.22048198 0.10000000)
		(1.91061453 -0.21193579 0.10000000)
		(1.92737430 -0.20240362 0.10000000)
		(1.94413408 -0.19192981 0.10000000)
		(1.96089385 -0.18056309 0.10000000)
		(1.97765363 -0.16835634 0.10000000)
		(1.99441341 -0.15536635 0.10000000)
		(2.01117318 -0.14165355 0.10000000)
		(2.02793296 -0.12728174 0.10000000)
		(2.04469274 -0.11231779 0.10000000)
		(2.06145251 -0.09683130 0.10000000)
		(2.07821229 -0.08089432 0.10000000)
		(2.09497207 -0.06458100 0.10000000)
		(2.11173184 -0.04796724 0.10000000)
		(2.12849162 -0.03113031 0.10000000)
		(2.14525140 -0.01414856 0.10000000)
		(2.16201117 0.00289901 0.10000000)
		(2.17877095 0.01993310 0.10000000)
		(2.19553073 0.03687445 0.10000000)
		(2.21229050 0.05364425 0.10000000)
		(2.22905028 0.07016449 0.10000000)
		(2.24581006 0.08635830 0.10000000)
		(2.26256983 0.10215034 0.10000000)
		(2.27932961 0.11746716 0.10000000)
		(2.29608939 0.13223748 0.10000000)
		(2.31284916 0.14639261 0.10000000)
		(2.32960894 0.15986667 0.10000000)
		(2.34636872 0.17259699 0.10000000)
		(2.36312849 0.18452434 0.10000000)
		(2.37988827 0.19559323 0.10000000)
		(2.39664804 0.20575217 0.10000000)
		(2.41340782 0.21495390 0.10000000)
		(2.43016760 0.22315560 0.10000000)
		(2.44692737 0.23031912 0.10000000)
		(2.46368715 0.23641113 0.10000000)
		(2.48044693 0.24140329 0.10000000)
		(2.49720670 0.24527238 0.10000000)
		(2.51396648 0.24800039 0.10000000)
		(2.53072626 0.24957464 0.10000000)
		(2.54748603 0.24998780 0.10000000)
		(2.56424581 0.24923795 0.10000000)
		(2.58100559 0.24732857 0.10000000)
		(2.59776536 0.24426856 0.10000000)
		(2.61452514 0.24007214 0.10000000)
		(2.63128492 0.23475883 0.10000000)
		(2.64804469 0.22835337 0.10000000)
		(2.66480447 0.22088554 0.10000000)
		(2.68156425 0.21239010 0.10000000)
		(2.69832402 0.20290655 0.10000000)
		(2.71508380 0.19247903 0.10000000)
		(2.73184358 0.18115605 0.10000000)
		(2.74860335 0.16899027 0.10000000)
		(2.76536313 0.15603831 0.10000000)
		(2.78212291 0.14236042 0.10000000)
		(2.79888268 0.12802022 0.10000000)
		(2.81564246 0.11308444 0.10000000)
		(2.83240223 0.09762256 0.10000000)
		(2.84916201 0.08170652 0.10000000)
		(2.86592179 0.06541035 0.10000000)
		(2.88268156 0.04880988 0.10000000)
		(2.89944134 0.03198232 0.10000000)
		(2.91620112 0.01500598 0.10000000)
		(2.93296089 -0.00204017 0.10000000)
		(2.95166480 -0.01482708 0.10000000)
		(2.97036872 -0.02626801 0.10000000)
		(2.98907263 -0.03636294 0.10000000)
		(3.00777654 -0.04511188 0.10000000)
		(3.02648045 -0.05251483 0.10000000)
		(3.04518436 -0.05857178 0.10000000)
		(3.06388827 -0.06328275 0.10000000)
		(3.08259218 -0.06664773 0.10000000)
		(3.10129609 -0.06866672 0.10000000)
		(3.12000000 -0.06933971 0.10000000)
		(3.14000000 -0.06933971 0.10000000)
		(3.16000000 -0.06933971 0.10000000)
		(3.18000000 -0.06933971 0.10000000)
		(3.20000000 -0.06933971 0.10000000)
		(3.22000000 -0.06933971 0.10000000)
		(3.24000000 -0.06933971 0.10000000)
		(3.26000000 -0.06933971 0.10000000)
		(3.28000000 -0.06933971 0.10000000)
		(3.30000000 -0.06933971 0.10000000)
		(3.32000000 -0.06933971 0.10000000)
		(3.34000000 -0.06933971 0.10000000)
		(3.36000000 -0.06933971 0.10000000)
		(3.38000000 -0.06933971 0.10000000)
		(3.40000000 -0.06933971 0.10000000)
		(3.42000000 -0.06933971 0.10000000)
		(3.44000000 -0.06933971 0.10000000)
		(3.46000000 -0.06933971 0.10000000)
		(3.48000000 -0.06933971 0.10000000)
		(3.50000000 -0.06933971 0.10000000)
		(3.52000000 -0.06933971 0.10000000)
		(3.54000000 -0.06933971 0.10000000)
		(3.56000000 -0.06933971 0.10000000)
		(3.58000000 -0.06933971 0.10000000)
		(3.60000000 -0.06933971 0.10000000)
		(3.62000000 -0.06933971 0.10000000)
		(3.64000000 -0.06933971 0.10000000)
		(3.66000000 -0.06933971 0.10000000)
		(3.68000000 -0.06933971 0.10000000)
		(3.70000000 -0.06933971 0.10000000)
		(3.72000000 -0.06933971 0.10000000)
		(3.74000000 -0.06933971 0.10000000)
		(3.76000000 -0.06933971 0.10000000)
		(3.78000000 -0.06933971 0.10000000)
		(3.80000000 -0.06933971 0.10000000)
		(3.82000000 -0.06933971 0.10000000)
		(3.84000000 -0.06933971 0.10000000)
		(3.86000000 -0.06933971 0.10000000)
		(3.88000000 -0.06933971 0.10000000)
		(3.90000000 -0.06933971 0.10000000)
		(3.92000000 -0.06933971 0.10000000)
		(3.94000000 -0.06933971 0.10000000)
		(3.96000000 -0.06933971 0.10000000)
		(3.98000000 -0.06933971 0.10000000)
		(4.00000000 -0.06933971 0.10000000)
	)
	polyLine 3 2
	(
		(-1.00000000 0.35152652 0.00000000)
		(-0.98000000 0.35177332 0.00000000)
		(-0.96000000 0.35202012 0.00000000)
		(-0.94000000 0.35226692 0.00000000)
		(-0.92000000 0.35251373 0.00000000)
		(-0.90000000 0.35276053 0.00000000)
		(-0.88000000 0.35300733 0.00000000)
		(-0.86000000 0.35325413 0.00000000)
		(-0.84000000 0.35350093 0.00000000)
		(-0.82000000 0.35374773 0.00000000)
		(-0.80000000 0.35399454 0.00000000)
		(-0.78000000 0.35424134 0.00000000)
		(-0.76000000 0.35448814 0.00000000)
		(-0.74000000 0.35473494 0.00000000)
		(-0.72000000 0.35498174 0.00000000)
		(-0.70000000 0.35522854 0.00000000)
		(-0.68000000 0.35547535 0.00000000)
		(-0.66000000 0.35572215 0.00000000)
		(-0.64000000 0.35596895 0.00000000)
		(-0.62000000 0.35621575 0.00000000)
		(-0.60000000 0.35646255 0.00000000)
		(-0.58000000 0.35670936 0.00000000)
		(-0.56000000 0.35695616 0.00000000)
		(-0.54000000 0.35720296 0.00000000)
		(-0.52000000 0.35744976 0.00000000)
		(-0.50000000 0.35769656 0.00000000)
		(-0.48000000 0.35794336 0.00000000)
		(-0.46000000 0.35819017 0.00000000)
		(-0.44000000 0.35843697 0.00000000)
		(-0.42000000 0.35868377 0.00000000)
		(-0.40000000 0.35893057 0.00000000)
		(-0.38000000 0.35917737 0.00000000)
		(-0.36000000 0.35942417 0.00000000)
		(-0.34000000 0.35967098 0.00000000)
		(-0.32000000 0.35991778 0.00000000)
		(-0.30000000 0.36016458 0.00000000)
		(-0.28000000 0.36041138 0.00000000)
		(-0.26000000 0.36065818 0.00000000)
		(-0.24000000 0.36090498 0.00000000)
		(-0.22000000 0.36115179 0.00000000)
		(-0.20000000 0.36139859 0.00000000)
		(-0.18000000 0.36164539 0.00000000)
		(-0.16000000 0.36189219 0.00000000)
		(-0.14000000 0.36213899 0.00000000)
		(-0.12000000 0.36238579 0.00000000)
		(-0.10000000 0.36263260 0.00000000)
		(-0.08162011 0.36316627 0.00000000)
		(-0.06324022 0.36240445 0.00000000)
		(-0.04486034 0.36034714 0.00000000)
		(-0.02648045 0.35699433 0.00000000)
		(-0.00810056 0.35234603 0.00000000)
		(0.01027933 0.34640225 0.00000000)
		(0.02865922 0.33916296 0.00000000)
		(0.04703911 0.33062819 0.00000000)
		(0.06541899 0.32079793 0.00000000)
		(0.08379888 0.30967217 0.00000000)
		(0.10055866 0.30135629 0.00000000)
		(0.11731844 0.29396455 0.00000000)
		(0.13407821 0.28753135 0.00000000)
		(0.15083799 0.28208661 0.00000000)
		(0.16759777 0.27765566 0.00000000)
		(0.18435754 0.27425912 0.00000000)
		(0.20111732 0.27191279 0.00000000)
		(0.21787709 0.27062758 0.00000000)
		(0.23463687 0.27040948 0.00000000)
		(0.25139665 0.27125949 0.00000000)
		(0.26815642 0.27317367 0.00000000)
		(0.28491620 0.27614310 0.00000000)
		(0.30167598 0.28015398 0.00000000)
		(0.31843575 0.28518765 0.00000000)
		(0.33519553 0.29122067 0.00000000)
		(0.35195531 0.29822500 0.00000000)
		(0.36871508 0.30616804 0.00000000)
		(0.38547486 0.31501284 0.00000000)
		(0.40223464 0.32471825 0.00000000)
		(0.41899441 0.33523912 0.00000000)
		(0.43575419 0.34652650 0.00000000)
		(0.45251397 0.35852788 0.00000000)
		(0.46927374 0.37118743 0.00000000)
		(0.48603352 0.38444625 0.00000000)
		(0.50279330 0.39824266 0.00000000)
		(0.51955307 0.41251247 0.00000000)
		(0.53631285 0.42718930 0.00000000)
		(0.55307263 0.44220486 0.00000000)
		(0.56983240 0.45748930 0.00000000)
		(0.58659218 0.47297151 0.00000000)
		(0.60335196 0.48857947 0.00000000)
		(0.62011173 0.50424056 0.00000000)
		(0.63687151 0.51988191 0.00000000)
		(0.65363128 0.53543078 0.00000000)
		(0.67039106 0.55081481 0.00000000)
		(0.68715084 0.56596243 0.00000000)
		(0.70391061 0.58080318 0.00000000)
		(0.72067039 0.59526802 0.00000000)
		(0.73743017 0.60928963 0.00000000)
		(0.75418994 0.62280281 0.00000000)
		(0.77094972 0.63574467 0.00000000)
		(0.78770950 0.64805501 0.00000000)
		(0.80446927 0.65967656 0.00000000)
		(0.82122905 0.67055524 0.00000000)
		(0.83798883 0.68064046 0.00000000)
		(0.85474860 0.68988529 0.00000000)
		(0.87150838 0.69824672 0.00000000)
		(0.88826816 0.70568586 0.00000000)
		(0.90502793 0.71216808 0.00000000)
		(0.92178771 0.71766325 0.00000000)
		(0.93854749 0.72214578 0.00000000)
		(0.95530726 0.72559483 0.00000000)
		(0.97206704 0.72799435 0.00000000)
		(0.98882682 0.72933318 0.00000000)
		(1.00558659 0.72960509 0.00000000)
		(1.02234637 0.72880881 0.00000000)
		(1.03910615 0.72694805 0.00000000)
		(1.05586592 0.72403147 0.00000000)
		(1.07262570 0.72007263 0.00000000)
		(1.08938547 0.71508996 0.00000000)
		(1.10614525 0.70910662 0.00000000)
		(1.12290503 0.70215047 0.00000000)
		(1.13966480 0.69425385 0.00000000)
		(1.15642458 0.68545352 0.00000000)
		(1.17318436 0.67579040 0.00000000)
		(1.18994413 0.66530946 0.00000000)
		(1.20670391 0.65405945 0.00000000)
		(1.22346369 0.64209272 0.00000000)
		(1.24022346 0.62946493 0.00000000)
		(1.25698324 0.61623483 0.00000000)
		(1.27374302 0.60246398 0.00000000)
		(1.29050279 0.58821644 0.00000000)
		(1.30726257 0.57355849 0.00000000)
		(1.32402235 0.55855833 0.00000000)
		(1.34078212 0.54328574 0.00000000)
		(1.35754190 0.52781177 0.00000000)
		(1.37430168 0.51220841 0.00000000)
		(1.39106145 0.49654826 0.00000000)
		(1.40782123 0.48090416 0.00000000)
		(1.42458101 0.46534891 0.00000000)
		(1.44134078 0.44995486 0.00000000)
		(1.45810056 0.43479363 0.00000000)
		(1.47486034 0.41993576 0.00000000)
		(1.49162011 0.40545038 0.00000000)
		(1.50837989 0.39140486 0.00000000)
		(1.52513966 0.37786456 0.00000000)
		(1.54189944 0.36489246 0.00000000)
		(1.55865922 0.35254892 0.00000000)
		(1.57541899 0.34089137 0.00000000)
		(1.59217877 0.32997403 0.00000000)
		(1.60893855 0.31984770 0.00000000)
		(1.62569832 0.31055949 0.00000000)
		(1.64245810 0.30215260 0.00000000)
		(1.65921788 0.29466616 0.00000000)
		(1.67597765 0.28813499 0.00000000)
		(1.69273743 0.28258947 0.00000000)
		(1.70949721 0.27805540 0.00000000)
		(1.72625698 0.27455388 0.00000000)
		(1.74301676 0.27210120 0.00000000)
		(1.75977654 0.27070876 0.00000000)
		(1.77653631 0.27038305 0.00000000)
		(1.79329609 0.27112558 0.00000000)
		(1.81005587 0.27293290 0.00000000)
		(1.82681564 0.27579660 0.00000000)
		(1.84357542 0.27970335 0.00000000)
		(1.86033520 0.28463498 0.00000000)
		(1.87709497 0.29056855 0.00000000)
		(1.89385475 0.29747645 0.00000000)
		(1.91061453 0.30532655 0.00000000)
		(1.92737430 0.31408232 0.00000000)
		(1.94413408 0.32370303 0.00000000)
		(1.96089385 0.33414392 0.00000000)
		(1.97765363 0.34535642 0.00000000)
		(1.99441341 0.35728837 0.00000000)
		(2.01117318 0.36988424 0.00000000)
		(2.02793296 0.38308546 0.00000000)
		(2.04469274 0.39683059 0.00000000)
		(2.06145251 0.41105569 0.00000000)
		(2.07821229 0.42569459 0.00000000)
		(2.09497207 0.44067917 0.00000000)
		(2.11173184 0.45593973 0.00000000)
		(2.12849162 0.47140528 0.00000000)
		(2.14525140 0.48700385 0.00000000)
		(2.16201117 0.50266288 0.00000000)
		(2.17877095 0.51830953 0.00000000)
		(2.19553073 0.53387100 0.00000000)
		(2.21229050 0.54927488 0.00000000)
		(2.22905028 0.56444953 0.00000000)
		(2.24581006 0.57932434 0.00000000)
		(2.26256983 0.59383012 0.00000000)
		(2.27932961 0.60789936 0.00000000)
		(2.29608939 0.62146664 0.00000000)
		(2.31284916 0.63446881 0.00000000)
		(2.32960894 0.64684540 0.00000000)
		(2.34636872 0.65853883 0.00000000)
		(2.36312849 0.66949469 0.00000000)
		(2.37988827 0.67966201 0.00000000)
		(2.39664804 0.68899350 0.00000000)
		(2.41340782 0.69744573 0.00000000)
		(2.43016760 0.70497940 0.00000000)
		(2.44692737 0.71155944 0.00000000)
		(2.46368715 0.71715526 0.00000000)