/*--------------------------------*- C++ -*----------------------------------*\\
/*--------------------------------*- C++ -*----------------------------------*\\
| =========                 |                                                 |
| \\\\      /  F ield         | OpenFOAM: The Open Source CFD Toolbox           |
|  \\\\    /   O peration     | Version:  v2012                                 |
|   \\\\  /    A nd           | Website:  www.openfoam.com                      |
|    \\\\/     M anipulation  |                                                 |
\\*---------------------------------------------------------------------------*/
FoamFile
{
    version     2.0;
    format      ascii;
    class       dictionary;
    object      blockMeshDict;
}
// * * * * * * * * * * * * * * * * * * * * * * * * * * * * * * * * * * * * * //

scale   0.01;

xmin -1;
xmax 5;
ymin 0;
ymax 0.5;
zmin 0;
zmax 0.1;

vertices
(
    (-1.00000000 0.17897529 0.00000000)
    (4.00000000 0.16467689 0.00000000)
    (4.00000000 0.66467689 0.00000000)
    (-1.00000000 0.67897529 0.00000000)
    (-1.00000000 0.17897529 0.10000000)
    (4.00000000 0.16467689 0.10000000)
    (4.00000000 0.66467689 0.10000000)
    (-1.00000000 0.67897529 0.10000000)
);

blocks
(
    hex (0 1 2 3 4 5 6 7) (200 20 1) simpleGrading (1 1 1)
);

edges
(
	polyLine 0 1
	(
		(-1.00000000 0.17897529 0.00000000)
		(-0.98000000 0.17897529 0.00000000)
		(-0.96000000 0.17897529 0.00000000)
		(-0.94000000 0.17897529 0.00000000)
		(-0.92000000 0.17897529 0.00000000)
		(-0.90000000 0.17897529 0.00000000)
		(-0.88000000 0.17897529 0.00000000)
		(-0.86000000 0.17897529 0.00000000)
		(-0.84000000 0.17897529 0.00000000)
		(-0.82000000 0.17897529 0.00000000)
		(-0.80000000 0.17897529 0.00000000)
		(-0.78000000 0.17897529 0.00000000)
		(-0.76000000 0.17897529 0.00000000)
		(-0.74000000 0.17897529 0.00000000)
		(-0.72000000 0.17897529 0.00000000)
		(-0.70000000 0.17897529 0.00000000)
		(-0.68000000 0.17897529 0.00000000)
		(-0.66000000 0.17897529 0.00000000)
		(-0.64000000 0.17897529 0.00000000)
		(-0.62000000 0.17897529 0.00000000)
		(-0.60000000 0.17897529 0.00000000)
		(-0.58000000 0.17897529 0.00000000)
		(-0.56000000 0.17897529 0.00000000)
		(-0.54000000 0.17897529 0.00000000)
		(-0.52000000 0.17897529 0.00000000)
		(-0.50000000 0.17897529 0.00000000)
		(-0.48000000 0.17897529 0.00000000)
		(-0.46000000 0.17897529 0.00000000)
		(-0.44000000 0.17897529 0.00000000)
		(-0.42000000 0.17897529 0.00000000)
		(-0.40000000 0.17897529 0.00000000)
		(-0.38000000 0.17897529 0.00000000)
		(-0.36000000 0.17897529 0.00000000)
		(-0.34000000 0.17897529 0.00000000)
		(-0.32000000 0.17897529 0.00000000)
		(-0.30000000 0.17897529 0.00000000)
		(-0.28000000 0.17897529 0.00000000)
		(-0.26000000 0.17897529 0.00000000)
		(-0.24000000 0.17897529 0.00000000)
		(-0.22000000 0.17897529 0.00000000)
		(-0.20000000 0.17897529 0.00000000)
		(-0.18000000 0.17897529 0.00000000)
		(-0.16000000 0.17897529 0.00000000)
		(-0.14000000 0.17897529 0.00000000)
		(-0.12000000 0.17897529 0.00000000)
		(-0.10000000 0.17897529 0.00000000)
		(-0.08162011 0.17826100 0.00000000)
		(-0.06324022 0.17611812 0.00000000)
		(-0.04486034 0.17254665 0.00000000)
		(-0.02648045 0.16754660 0.00000000)
		(-0.00810056 0.16111796 0.00000000)
		(0.01027933 0.15326074 0.00000000)
		(0.02865922 0.14397493 0.00000000)
		(0.04703911 0.13326053 0.00000000)
		(0.06541899 0.12111755 0.00000000)
		(0.08379888 0.10754598 0.00000000)
		(0.10055866 0.09134779 0.00000000)
		(0.11731844 0.07469393 0.00000000)
		(0.13407821 0.05766746 0.00000000)
		(0.15083799 0.04035331 0.00000000)
		(0.16759777 0.02283787 0.00000000)
		(0.18435754 0.00520851 0.00000000)
		(0.20111732 -0.01244684 0.00000000)
		(0.21787709 -0.03004010 0.00000000)
		(0.23463687 -0.04748350 0.00000000)
		(0.25139665 -0.06469004 0.00000000)
		(0.26815642 -0.08157387 0.00000000)
		(0.28491620 -0.09805078 0.00000000)
		(0.30167598 -0.11403857 0.00000000)
		(0.31843575 -0.12945749 0.00000000)
		(0.33519553 -0.14423062 0.00000000)
		(0.35195531 -0.15828426 0.00000000)
		(0.36871508 -0.17154832 0.00000000)
		(0.38547486 -0.18395662 0.00000000)
		(0.40223464 -0.19544726 0.00000000)
		(0.41899441 -0.20596293 0.00000000)
		(0.43575419 -0.21545117 0.00000000)
		(0.45251397 -0.22386464 0.00000000)
		(0.46927374 -0.23116139 0.00000000)
		(0.48603352 -0.23730500 0.00000000)
		(0.50279330 -0.24226483 0.00000000)
		(0.51955307 -0.24601614 0.00000000)
		(0.53631285 -0.24854022 0.00000000)
		(0.55307263 -0.24982447 0.00000000)
		(0.56983240 -0.24986249 0.00000000)
		(0.58659218 -0.24865410 0.00000000)
		(0.60335196 -0.24620530 0.00000000)
		(0.62011173 -0.24252833 0.00000000)
		(0.63687151 -0.23764153 0.00000000)
		(0.65363128 -0.23156927 0.00000000)
		(0.67039106 -0.22434184 0.00000000)
		(0.68715084 -0.21599530 0.00000000)
		(0.70391061 -0.20657128 0.00000000)
		(0.72067039 -0.19611679 0.00000000)
		(0.73743017 -0.18468399 0.00000000)
		(0.75418994 -0.17232991 0.00000000)
		(0.77094972 -0.15911617 0.00000000)
		(0.78770950 -0.14510870 0.00000000)
		(0.80446927 -0.13037736 0.00000000)
		(0.82122905 -0.11499564 0.00000000)
		(0.83798883 -0.09904027 0.00000000)
		(0.85474860 -0.08259085 0.00000000)
		(0.87150838 -0.06572943 0.00000000)
		(0.88826816 -0.04854012 0.00000000)
		(0.90502793 -0.03110868 0.00000000)
		(0.92178771 -0.01352205 0.00000000)
		(0.93854749 0.00413203 0.00000000)
		(0.95530726 0.02176551 0.00000000)
		(0.97206704 0.03929040 0.00000000)
		(0.98882682 0.05661930 0.00000000)
		(1.00558659 0.07366575 0.00000000)
		(1.02234637 0.09034473 0.00000000)
		(1.03910615 0.10657303 0.00000000)
		(1.05586592 0.12226970 0.00000000)
		(1.07262570 0.13735644 0.00000000)
		(1.08938547 0.15175798 0.00000000)
		(1.10614525 0.16540249 0.00000000)
		(1.12290503 0.17822190 0.00000000)
		(1.13966480 0.19015227 0.00000000)
		(1.15642458 0.20113407 0.00000000)
		(1.17318436 0.21111253 0.00000000)
		(1.18994413 0.22003787 0.00000000)
		(1.20670391 0.22786557 0.00000000)
		(1.22346369 0.23455658 0.00000000)
		(1.24022346 0.24007752 0.00000000)
		(1.25698324 0.24440085 0.00000000)
		(1.27374302 0.24750500 0.00000000)
		(1.29050279 0.24937449 0.00000000)
		(1.30726257 0.25000000 0.00000000)
		(1.32402235 0.24937840 0.00000000)
		(1.34078212 0.24751279 0.00000000)
		(1.35754190 0.24441248 0.00000000)
		(1.37430168 0.24009294 0.00000000)
		(1.39106145 0.23457572 0.00000000)
		(1.40782123 0.22788832 0.00000000)
		(1.42458101 0.22006413 0.00000000)
		(1.44134078 0.21114216 0.00000000)
		(1.45810056 0.20116692 0.00000000)
		(1.47486034 0.19018818 0.00000000)
		(1.49162011 0.17826069 0.00000000)
		(1.50837989 0.16544397 0.00000000)
		(1.52513966 0.15180194 0.00000000)
		(1.54189944 0.13740266 0.00000000)
		(1.55865922 0.12231795 0.00000000)
		(1.57541899 0.10662307 0.00000000)
		(1.59217877 0.09039631 0.00000000)
		(1.60893855 0.07371861 0.00000000)
		(1.62569832 0.05667318 0.00000000)
		(1.64245810 0.03934503 0.00000000)
		(1.65921788 0.02182061 0.00000000)
		(1.67597765 0.00418735 0.00000000)
		(1.69273743 -0.01346681 0.00000000)
		(1.70949721 -0.03105379 0.00000000)
		(1.72625698 -0.04848586 0.00000000)
		(1.74301676 -0.06567606 0.00000000)
		(1.75977654 -0.08253863 0.00000000)
		(1.77653631 -0.09898948 0.00000000)
		(1.79329609 -0.11494652 0.00000000)
		(1.81005587 -0.13033015 0.00000000)
		(1.82681564 -0.14506365 0.00000000)
		(1.84357542 -0.15907350 0.00000000)
		(1.86033520 -0.17228983 0.00000000)
		(1.87709497 -0.18464670 0.00000000)
		(1.89385475 -0.19608248 0.00000000)
		(1.91061453 -0.20654011 0.00000000)
		(1.92737430 -0.21596744 0.00000000)
		(1.94413408 -0.22431742 0.00000000)
		(1.96089385 -0.23154841 0.00000000)
		(1.97765363 -0.23762435 0.00000000)
		(1.99441341 -0.24251490 0.00000000)
		(2.01117318 -0.24619570 0.00000000)
		(2.02793296 -0.24864836 0.00000000)
		(2.04469274 -0.24986065 0.00000000)
		(2.06145251 -0.24982654 0.00000000)
		(2.07821229 -0.24854618 0.00000000)
		(2.09497207 -0.24602597 0.00000000)
		(2.11173184 -0.24227848 0.00000000)
		(2.12849162 -0.23732240 0.00000000)
		(2.14525140 -0.23118245 0.00000000)
		(2.16201117 -0.22388926 0.00000000)
		(2.17877095 -0.21547922 0.00000000)
		(2.19553073 -0.20599428 0.00000000)
		(2.21229050 -0.19548175 0.00000000)
		(2.22905028 -0.18399407 0.00000000)
		(2.24581006 -0.17158855 0.00000000)
		(2.26256983 -0.15832708 0.00000000)
		(2.27932961 -0.14427580 0.00000000)
		(2.29608939 -0.12950481 0.00000000)
		(2.31284916 -0.11408780 0.00000000)
		(2.32960894 -0.09810167 0.00000000)
		(2.34636872 -0.08162616 0.00000000)
		(2.36312849 -0.06474347 0.00000000)
		(2.37988827 -0.04753781 0.00000000)
		(2.39664804 -0.03009501 0.00000000)
		(2.41340782 -0.01250209 0.00000000)
		(2.43016760 0.00515320 0.00000000)
		(2.44692737 0.02278279 0.00000000)
		(2.46368715 0.04029872 0.00000000)
		(2.48044693 0.05761363 0.00000000)
		(2.49720670 0.07464113 0.00000000)
		(2.51396648 0.09129630 0.00000000)
		(2.53072626 0.10749604 0.00000000)
		(2.54748603 0.12315954 0.00000000)
		(2.56424581 0.13820867 0.00000000)
		(2.58100559 0.15256835 0.00000000)
		(2.59776536 0.16616696 0.00000000)
		(2.61452514 0.17893666 0.00000000)
		(2.63128492 0.19081375 0.00000000)
		(2.64804469 0.20173897 0.00000000)
		(2.66480447 0.21165784 0.00000000)
		(2.68156425 0.22052086 0.00000000)
		(2.69832402 0.22828383 0.00000000)
		(2.71508380 0.23490803 0.00000000)
		(2.73184358 0.24036040 0.00000000)
		(2.74860335 0.24461375 0.00000000)
		(2.76536313 0.24764687 0.00000000)
		(2.78212291 0.24944462 0.00000000)
		(2.79888268 0.24999803 0.00000000)
		(2.81564246 0.24930434 0.00000000)
		(2.83240223 0.24736701 0.00000000)
		(2.84916201 0.24419572 0.00000000)
		(2.86592179 0.23980627 0.00000000)
		(2.88268156 0.23422056 0.00000000)
		(2.89944134 0.22746647 0.00000000)
		(2.91620112 0.21957767 0.00000000)
		(2.93296089 0.21059352 0.00000000)
		(2.95166480 0.20186936 0.00000000)
		(2.97036872 0.19406353 0.00000000)
		(2.98907263 0.18717604 0.00000000)
		(3.00777654 0.18120688 0.00000000)
		(3.02648045 0.17615605 0.00000000)
		(3.04518436 0.17202355 0.00000000)
		(3.06388827 0.16880939 0.00000000)
		(3.08259218 0.16651355 0.00000000)
		(3.10129609 0.16513605 0.00000000)
		(3.12000000 0.16467689 0.00000000)
		(3.14000000 0.16467689 0.00000000)
		(3.16000000 0.16467689 0.00000000)
		(3.18000000 0.16467689 0.00000000)
		(3.20000000 0.16467689 0.00000000)
		(3.22000000 0.16467689 0.00000000)
		(3.24000000 0.16467689 0.00000000)
		(3.26000000 0.16467689 0.00000000)
		(3.28000000 0.16467689 0.00000000)
		(3.30000000 0.16467689 0.00000000)
		(3.32000000 0.16467689 0.00000000)
		(3.34000000 0.16467689 0.00000000)
		(3.36000000 0.16467689 0.00000000)
		(3.38000000 0.16467689 0.00000000)
		(3.40000000 0.16467689 0.00000000)
		(3.42000000 0.16467689 0.00000000)
		(3.44000000 0.16467689 0.00000000)
		(3.46000000 0.16467689 0.00000000)
		(3.48000000 0.16467689 0.00000000)
		(3.50000000 0.16467689 0.00000000)
		(3.52000000 0.16467689 0.00000000)
		(3.54000000 0.16467689 0.00000000)
		(3.56000000 0.16467689 0.00000000)
		(3.58000000 0.16467689 0.00000000)
		(3.60000000 0.16467689 0.00000000)
		(3.62000000 0.16467689 0.00000000)
		(3.64000000 0.16467689 0.00000000)
		(3.66000000 0.16467689 0.00000000)
		(3.68000000 0.16467689 0.00000000)
		(3.70000000 0.16467689 0.00000000)
		(3.72000000 0.16467689 0.00000000)
		(3.74000000 0.16467689 0.00000000)
		(3.76000000 0.16467689 0.00000000)
		(3.78000000 0.16467689 0.00000000)
		(3.80000000 0.16467689 0.00000000)
		(3.82000000 0.16467689 0.00000000)
		(3.84000000 0.16467689 0.00000000)
		(3.86000000 0.16467689 0.00000000)
		(3.88000000 0.16467689 0.00000000)
		(3.90000000 0.16467689 0.00000000)
		(3.92000000 0.16467689 0.00000000)
		(3.94000000 0.16467689 0.00000000)
		(3.96000000 0.16467689 0.00000000)
		(3.98000000 0.16467689 0.00000000)
		(4.00000000 0.16467689 0.00000000)
	)
	polyLine 4 5
	(
		(-1.00000000 0.17897529 0.10000000)
		(-0.98000000 0.17897529 0.10000000)
		(-0.96000000 0.17897529 0.10000000)
		(-0.94000000 0.17897529 0.10000000)
		(-0.92000000 0.17897529 0.10000000)
		(-0.90000000 0.17897529 0.10000000)
		(-0.88000000 0.17897529 0.10000000)
		(-0.86000000 0.17897529 0.10000000)
		(-0.84000000 0.17897529 0.10000000)
		(-0.82000000 0.17897529 0.10000000)
		(-0.80000000 0.17897529 0.10000000)
		(-0.78000000 0.17897529 0.10000000)
		(-0.76000000 0.17897529 0.10000000)
		(-0.74000000 0.17897529 0.10000000)
		(-0.72000000 0.17897529 0.10000000)
		(-0.70000000 0.17897529 0.10000000)
		(-0.68000000 0.17897529 0.10000000)
		(-0.66000000 0.17897529 0.10000000)
		(-0.64000000 0.17897529 0.10000000)
		(-0.62000000 0.17897529 0.10000000)
		(-0.60000000 0.17897529 0.10000000)
		(-0.58000000 0.17897529 0.10000000)
		(-0.56000000 0.17897529 0.10000000)
		(-0.54000000 0.17897529 0.10000000)
		(-0.52000000 0.17897529 0.10000000)
		(-0.50000000 0.17897529 0.10000000)
		(-0.48000000 0.17897529 0.10000000)
		(-0.46000000 0.17897529 0.10000000)
		(-0.44000000 0.17897529 0.10000000)
		(-0.42000000 0.17897529 0.10000000)
		(-0.40000000 0.17897529 0.10000000)
		(-0.38000000 0.17897529 0.10000000)
		(-0.36000000 0.17897529 0.10000000)
		(-0.34000000 0.17897529 0.10000000)
		(-0.32000000 0.17897529 0.10000000)
		(-0.30000000 0.17897529 0.10000000)
		(-0.28000000 0.17897529 0.10000000)
		(-0.26000000 0.17897529 0.10000000)
		(-0.24000000 0.17897529 0.10000000)
		(-0.22000000 0.17897529 0.10000000)
		(-0.20000000 0.17897529 0.10000000)
		(-0.18000000 0.17897529 0.10000000)
		(-0.16000000 0.17897529 0.10000000)
		(-0.14000000 0.17897529 0.10000000)
		(-0.12000000 0.17897529 0.10000000)
		(-0.10000000 0.17897529 0.10000000)
		(-0.08162011 0.17826100 0.10000000)
		(-0.06324022 0.17611812 0.10000000)
		(-0.04486034 0.17254665 0.10000000)
		(-0.02648045 0.16754660 0.10000000)
		(-0.00810056 0.16111796 0.10000000)
		(0.01027933 0.15326074 0.10000000)
		(0.02865922 0.14397493 0.10000000)
		(0.04703911 0.13326053 0.10000000)
		(0.06541899 0.12111755 0.10000000)
		(0.08379888 0.10754598 0.10000000)
		(0.10055866 0.09134779 0.10000000)
		(0.11731844 0.07469393 0.10000000)
		(0.13407821 0.05766746 0.10000000)
		(0.15083799 0.04035331 0.10000000)
		(0.16759777 0.02283787 0.10000000)
		(0.18435754 0.00520851 0.10000000)
		(0.20111732 -0.01244684 0.10000000)
		(0.21787709 -0.03004010 0.10000000)
		(0.23463687 -0.04748350 0.10000000)
		(0.25139665 -0.06469004 0.10000000)
		(0.26815642 -0.08157387 0.10000000)
		(0.28491620 -0.09805078 0.10000000)
		(0.30167598 -0.11403857 0.10000000)
		(0.31843575 -0.12945749 0.10000000)
		(0.33519553 -0.14423062 0.10000000)
		(0.35195531 -0.15828426 0.10000000)
		(0.36871508 -0.17154832 0.10000000)
		(0.38547486 -0.18395662 0.10000000)
		(0.40223464 -0.19544726 0.10000000)
		(0.41899441 -0.20596293 0.10000000)
		(0.43575419 -0.21545117 0.10000000)
		(0.45251397 -0.22386464 0.10000000)
		(0.46927374 -0.23116139 0.10000000)
		(0.48603352 -0.23730500 0.10000000)
		(0.50279330 -0.24226483 0.10000000)
		(0.51955307 -0.24601614 0.10000000)
		(0.53631285 -0.24854022 0.10000000)
		(0.55307263 -0.24982447 0.10000000)
		(0.56983240 -0.24986249 0.10000000)
		(0.58659218 -0.24865410 0.10000000)
		(0.60335196 -0.24620530 0.10000000)
		(0.62011173 -0.24252833 0.10000000)
		(0.63687151 -0.23764153 0.10000000)
		(0.65363128 -0.23156927 0.10000000)
		(0.67039106 -0.22434184 0.10000000)
		(0.68715084 -0.21599530 0.10000000)
		(0.70391061 -0.20657128 0.10000000)
		(0.72067039 -0.19611679 0.10000000)
		(0.73743017 -0.18468399 0.10000000)
		(0.75418994 -0.17232991 0.10000000)
		(0.77094972 -0.15911617 0.10000000)
		(0.78770950 -0.14510870 0.10000000)
		(0.80446927 -0.13037736 0.10000000)
		(0.82122905 -0.11499564 0.10000000)
		(0.83798883 -0.09904027 0.10000000)
		(0.85474860 -0.08259085 0.10000000)
		(0.87150838 -0.06572943 0.10000000)
		(0.88826816 -0.04854012 0.10000000)
		(0.90502793 -0.03110868 0.10000000)
		(0.92178771 -0.01352205 0.10000000)
		(0.93854749 0.00413203 0.10000000)
		(0.95530726 0.02176551 0.10000000)
		(0.97206704 0.03929040 0.10000000)
		(0.98882682 0.05661930 0.10000000)
		(1.00558659 0.07366575 0.10000000)
		(1.02234637 0.09034473 0.10000000)
		(1.03910615 0.10657303 0.10000000)
		(1.05586592 0.12226970 0.10000000)
		(1.07262570 0.13735644 0.10000000)
		(1.08938547 0.15175798 0.10000000)
		(1.10614525 0.16540249 0.10000000)
		(1.12290503 0.17822190 0.10000000)
		(1.13966480 0.19015227 0.10000000)
		(1.15642458 0.20113407 0.10000000)
		(1.17318436 0.21111253 0.10000000)
		(1.18994413 0.22003787 0.10000000)
		(1.20670391 0.22786557 0.10000000)
		(1.22346369 0.23455658 0.10000000)
		(1.24022346 0.24007752 0.10000000)
		(1.25698324 0.24440085 0.10000000)
		(1.27374302 0.24750500 0.10000000)
		(1.29050279 0.24937449 0.10000000)
		(1.30726257 0.25000000 0.10000000)
		(1.32402235 0.24937840 0.10000000)
		(1.34078212 0.24751279 0.10000000)
		(1.35754190 0.24441248 0.10000000)
		(1.37430168 0.24009294 0.10000000)
		(1.39106145 0.23457572 0.10000000)
		(1.40782123 0.22788832 0.10000000)
		(1.42458101 0.22006413 0.10000000)
		(1.44134078 0.21114216 0.10000000)
		(1.45810056 0.20116692 0.10000000)
		(1.47486034 0.19018818 0.10000000)
		(1.49162011 0.17826069 0.10000000)
		(1.50837989 0.16544397 0.10000000)
		(1.52513966 0.15180194 0.10000000)
		(1.54189944 0.13740266 0.10000000)
		(1.55865922 0.12231795 0.10000000)
		(1.57541899 0.10662307 0.10000000)
		(1.59217877 0.09039631 0.10000000)
		(1.60893855 0.07371861 0.10000000)
		(1.62569832 0.05667318 0.10000000)
		(1.64245810 0.03934503 0.10000000)
		(1.65921788 0.02182061 0.10000000)
		(1.67597765 0.00418735 0.10000000)
		(1.69273743 -0.01346681 0.10000000)
		(1.70949721 -0.03105379 0.10000000)
		(1.72625698 -0.04848586 0.10000000)
		(1.74301676 -0.06567606 0.10000000)
		(1.75977654 -0.08253863 0.10000000)
		(1.77653631 -0.09898948 0.10000000)
		(1.79329609 -0.11494652 0.10000000)
		(1.81005587 -0.13033015 0.10000000)
		(1.82681564 -0.14506365 0.10000000)
		(1.84357542 -0.15907350 0.10000000)
		(1.86033520 -0.17228983 0.10000000)
		(1.87709497 -0.18464670 0.10000000)
		(1.89385475 -0.19608248 0.10000000)
		(1.91061453 -0.20654011 0.10000000)
		(1.92737430 -0.21596744 0.10000000)
		(1.94413408 -0.22431742 0.10000000)
		(1.96089385 -0.23154841 0.10000000)
		(1.97765363 -0.23762435 0.10000000)
		(1.99441341 -0.24251490 0.10000000)
		(2.01117318 -0.24619570 0.10000000)
		(2.02793296 -0.24864836 0.10000000)
		(2.04469274 -0.24986065 0.10000000)
		(2.06145251 -0.24982654 0.10000000)
		(2.07821229 -0.24854618 0.10000000)
		(2.09497207 -0.24602597 0.10000000)
		(2.11173184 -0.24227848 0.10000000)
		(2.12849162 -0.23732240 0.10000000)
		(2.14525140 -0.23118245 0.10000000)
		(2.16201117 -0.22388926 0.10000000)
		(2.17877095 -0.21547922 0.10000000)
		(2.19553073 -0.20599428 0.10000000)
		(2.21229050 -0.19548175 0.10000000)
		(2.22905028 -0.18399407 0.10000000)
		(2.24581006 -0.17158855 0.10000000)
		(2.26256983 -0.15832708 0.10000000)
		(2.27932961 -0.14427580 0.10000000)
		(2.29608939 -0.12950481 0.10000000)
		(2.31284916 -0.11408780 0.10000000)
		(2.32960894 -0.09810167 0.10000000)
		(2.34636872 -0.08162616 0.10000000)
		(2.36312849 -0.06474347 0.10000000)
		(2.37988827 -0.04753781 0.10000000)
		(2.39664804 -0.03009501 0.10000000)
		(2.41340782 -0.01250209 0.10000000)
		(2.43016760 0.00515320 0.10000000)
		(2.44692737 0.02278279 0.10000000)
		(2.46368715 0.04029872 0.10000000)
		(2.48044693 0.05761363 0.10000000)
		(2.49720670 0.07464113 0.10000000)
		(2.51396648 0.09129630 0.10000000)
		(2.53072626 0.10749604 0.10000000)
		(2.54748603 0.12315954 0.10000000)
		(2.56424581 0.13820867 0.10000000)
		(2.58100559 0.15256835 0.10000000)
		(2.59776536 0.16616696 0.10000000)
		(2.61452514 0.17893666 0.10000000)
		(2.63128492 0.19081375 0.10000000)
		(2.64804469 0.20173897 0.10000000)
		(2.66480447 0.21165784 0.10000000)
		(2.68156425 0.22052086 0.10000000)
		(2.69832402 0.22828383 0.10000000)
		(2.71508380 0.23490803 0.10000000)
		(2.73184358 0.24036040 0.10000000)
		(2.74860335 0.24461375 0.10000000)
		(2.76536313 0.24764687 0.10000000)
		(2.78212291 0.24944462 0.10000000)
		(2.79888268 0.24999803 0.10000000)
		(2.81564246 0.24930434 0.10000000)
		(2.83240223 0.24736701 0.10000000)
		(2.84916201 0.24419572 0.10000000)
		(2.86592179 0.23980627 0.10000000)
		(2.88268156 0.23422056 0.10000000)
		(2.89944134 0.22746647 0.10000000)
		(2.91620112 0.21957767 0.10000000)
		(2.93296089 0.21059352 0.10000000)
		(2.95166480 0.20186936 0.10000000)
		(2.97036872 0.19406353 0.10000000)
		(2.98907263 0.18717604 0.10000000)
		(3.00777654 0.18120688 0.10000000)
		(3.02648045 0.17615605 0.10000000)
		(3.04518436 0.17202355 0.10000000)
		(3.06388827 0.16880939 0.10000000)
		(3.08259218 0.16651355 0.10000000)
		(3.10129609 0.16513605 0.10000000)
		(3.12000000 0.16467689 0.10000000)
		(3.14000000 0.16467689 0.10000000)
		(3.16000000 0.16467689 0.10000000)
		(3.18000000 0.16467689 0.10000000)
		(3.20000000 0.16467689 0.10000000)
		(3.22000000 0.16467689 0.10000000)
		(3.24000000 0.16467689 0.10000000)
		(3.26000000 0.16467689 0.10000000)
		(3.28000000 0.16467689 0.10000000)
		(3.30000000 0.16467689 0.10000000)
		(3.32000000 0.16467689 0.10000000)
		(3.34000000 0.16467689 0.10000000)
		(3.36000000 0.16467689 0.10000000)
		(3.38000000 0.16467689 0.10000000)
		(3.40000000 0.16467689 0.10000000)
		(3.42000000 0.16467689 0.10000000)
		(3.44000000 0.16467689 0.10000000)
		(3.46000000 0.16467689 0.10000000)
		(3.48000000 0.16467689 0.10000000)
		(3.50000000 0.16467689 0.10000000)
		(3.52000000 0.16467689 0.10000000)
		(3.54000000 0.16467689 0.10000000)
		(3.56000000 0.16467689 0.10000000)
		(3.58000000 0.16467689 0.10000000)
		(3.60000000 0.16467689 0.10000000)
		(3.62000000 0.16467689 0.10000000)
		(3.64000000 0.16467689 0.10000000)
		(3.66000000 0.16467689 0.10000000)
		(3.68000000 0.16467689 0.10000000)
		(3.70000000 0.16467689 0.10000000)
		(3.72000000 0.16467689 0.10000000)
		(3.74000000 0.16467689 0.10000000)
		(3.76000000 0.16467689 0.10000000)
		(3.78000000 0.16467689 0.10000000)
		(3.80000000 0.16467689 0.10000000)
		(3.82000000 0.16467689 0.10000000)
		(3.84000000 0.16467689 0.10000000)
		(3.86000000 0.16467689 0.10000000)
		(3.88000000 0.16467689 0.10000000)
		(3.90000000 0.16467689 0.10000000)
		(3.92000000 0.16467689 0.10000000)
		(3.94000000 0.16467689 0.10000000)
		(3.96000000 0.16467689 0.10000000)
		(3.98000000 0.16467689 0.10000000)
		(4.00000000 0.16467689 0.10000000)
	)
	polyLine 3 2
	(
		(-1.00000000 0.67897529 0.00000000)
		(-0.98000000 0.68176126 0.00000000)
		(-0.96000000 0.68454723 0.00000000)
		(-0.94000000 0.68733320 0.00000000)
		(-0.92000000 0.69011916 0.00000000)
		(-0.90000000 0.69290513 0.00000000)
		(-0.88000000 0.69569110 0.00000000)
		(-0.86000000 0.69847707 0.00000000)
		(-0.84000000 0.70126304 0.00000000)
		(-0.82000000 0.70404901 0.00000000)
		(-0.80000000 0.70683498 0.00000000)
		(-0.78000000 0.70962094 0.00000000)
		(-0.76000000 0.71240691 0.00000000)
		(-0.74000000 0.71519288 0.00000000)
		(-0.72000000 0.71797885 0.00000000)
		(-0.70000000 0.72076482 0.00000000)
		(-0.68000000 0.72355079 0.00000000)
		(-0.66000000 0.72633676 0.00000000)
		(-0.64000000 0.72912272 0.00000000)
		(-0.62000000 0.73190869 0.00000000)
		(-0.60000000 0.73469466 0.00000000)
		(-0.58000000 0.73748063 0.00000000)
		(-0.56000000 0.74026660 0.00000000)
		(-0.54000000 0.74305257 0.00000000)
		(-0.52000000 0.74583854 0.00000000)
		(-0.50000000 0.74862450 0.00000000)
		(-0.48000000 0.75141047 0.00000000)
		(-0.46000000 0.75419644 0.00000000)
		(-0.44000000 0.75698241 0.00000000)
		(-0.42000000 0.75976838 0.00000000)
		(-0.40000000 0.76255435 0.00000000)
		(-0.38000000 0.76534032 0.00000000)
		(-0.36000000 0.76812629 0.00000000)
		(-0.34000000 0.77091225 0.00000000)
		(-0.32000000 0.77369822 0.00000000)
		(-0.30000000 0.77648419 0.00000000)
		(-0.28000000 0.77927016 0.00000000)
		(-0.26000000 0.78205613 0.00000000)
		(-0.24000000 0.78484210 0.00000000)
		(-0.22000000 0.78762807 0.00000000)
		(-0.20000000 0.79041403 0.00000000)
		(-0.18000000 0.79320000 0.00000000)
		(-0.16000000 0.79598597 0.00000000)
		(-0.14000000 0.79877194 0.00000000)
		(-0.12000000 0.80155791 0.00000000)
		(-0.10000000 0.80434388 0.00000000)
		(-0.08162011 0.80713388 0.00000000)
		(-0.06324022 0.80675349 0.00000000)
		(-0.04486034 0.80320270 0.00000000)
		(-0.02648045 0.79648152 0.00000000)
		(-0.00810056 0.78658994 0.00000000)
		(0.01027933 0.77352796 0.00000000)
		(0.02865922 0.75729559 0.00000000)
		(0.04703911 0.73789283 0.00000000)
		(0.06541899 0.71531966 0.00000000)
		(0.08379888 0.68957610 0.00000000)
		(0.10055866 0.66102284 0.00000000)
		(0.11731844 0.63166633 0.00000000)
		(0.13407821 0.60165300 0.00000000)
		(0.15083799 0.57113259 0.00000000)
		(0.16759777 0.54025734 0.00000000)
		(0.18435754 0.50918127 0.00000000)
		(0.20111732 0.47805940 0.00000000)
		(0.21787709 0.44704698 0.00000000)
		(0.23463687 0.41629871 0.00000000)
		(0.25139665 0.38596797 0.00000000)
		(0.26815642 0.35620608 0.00000000)
		(0.28491620 0.32716150 0.00000000)
		(0.30167598 0.29897910 0.00000000)
		(0.31843575 0.27179949 0.00000000)
		(0.33519553 0.24575823 0.00000000)
		(0.35195531 0.22098524 0.00000000)
		(0.36871508 0.19760410 0.00000000)
		(0.38547486 0.17573144 0.00000000)
		(0.40223464 0.15547637 0.00000000)
		(0.41899441 0.13693993 0.00000000)
		(0.43575419 0.12021459 0.00000000)
		(0.45251397 0.10538378 0.00000000)
		(0.46927374 0.09252148 0.00000000)
		(0.48603352 0.08169186 0.00000000)
		(0.50279330 0.07294894 0.00000000)
		(0.51955307 0.06633634 0.00000000)
		(0.53631285 0.06188703 0.00000000)
		(0.55307263 0.05962322 0.00000000)
		(0.56983240 0.05955620 0.00000000)
		(0.58659218 0.06168630 0.00000000)
		(0.60335196 0.06600290 0.00000000)
		(0.62011173 0.07248446 0.00000000)
		(0.63687151 0.08109864 0.00000000)
		(0.65363128 0.09180249 0.00000000)
		(0.67039106 0.10454261 0.00000000)
		(0.68715084 0.11925543 0.00000000)
		(0.70391061 0.13586757 0.00000000)
		(0.72067039 0.15429616 0.00000000)
		(0.73743017 0.17444926 0.00000000)
		(0.75418994 0.19622636 0.00000000)
		(0.77094972 0.21951880 0.00000000)
		(0.78770950 0.24421041 0.00000000)
		(0.80446927 0.27017800 0.00000000)
		(0.82122905 0.29729205 0.00000000)
		(0.83798883 0.32541728 0.00000000)
		(0.85474860 0.35441342 0.00000000)
		(0.87150838 0.38413579 0.00000000)
		(0.88826816 0.41443615 0.00000000)
		(0.90502793 0.44516334 0.00000000)
		(0.92178771 0.47616408 0.00000000)
		(0.93854749 0.50728372 0.00000000)
		(0.95530726 0.53836703 0.00000000)
		(0.97206704 0.56925895 0.00000000)
		(0.98882682 0.59980537 0.00000000)
		(1.00558659 0.62985392 0.00000000)
		(1.02234637 0.65925470 0.00000000)
		(1.03910615 0.68786106 0.00000000)
		(1.05586592 0.71553028 0.00000000)
		(1.07262570 0.74212434 0.00000000)
		(1.08938547 0.76751059 0.00000000)
		(1.10614525 0.79156238 0.00000000)
		(1.12290503 0.81415973 0.00000000)
		(1.13966480 0.83518991 0.00000000)
		(1.15642458 0.85454803 0.00000000)
		(1.17318436 0.87213751 0.00000000)
		(1.18994413 0.88787061 0.00000000)
		(1.20670391 0.90166884 0.00000000)
		(1.22346369 0.91346338 0.00000000)
		(1.24022346 0.92319538 0.00000000)
		(1.25698324 0.93081631 0.00000000)
		(1.27374302 0.93628814 0.00000000)
		(1.29050279 0.93958358 0.00000000)
		(1.30726257 0.94068618 0.00000000)
		(1.32402235 0.93959046 0.00000000)
		(1.34078212 0.93630187 0.00000000)
		(1.35754190 0.93083682 0.00000000)
		(1.37430168 0.92322257 0.00000000)
		(1.39106145 0.91349711 0.00000000)
		(1.40782123 0.90170894 0.00000000)
		(1.42458101 0.88791689 0.00000000)
		(1.44134078 0.87218973 0.00000000)
		(1.45810056 0.85460593 0.00000000)
		(1.47486034 0.83525321 0.00000000)
		(1.49162011 0.81422810 0.00000000)
		(1.50837989 0.79163549 0.00000000)
		(1.52513966 0.76758807 0.00000000)
		(1.54189944 0.74220581 0.00000000)
		(1.55865922 0.71561533 0.00000000)
		(1.57541899 0.68794926 0.00000000)
		(1.59217877 0.65934562 0.00000000)
		(1.60893855 0.62994710 0.00000000)
		(1.62569832 0.59990034 0.00000000)
		(1.64245810 0.56935524 0.00000000)
		(1.65921788 0.53846417 0.00000000)
		(1.67597765 0.50738122 0.00000000)
		(1.69273743 0.47626145 0.00000000)
		(1.70949721 0.44526010 0.00000000)
		(1.72625698 0.41453181 0.00000000)
		(1.74301676 0.38422988 0.00000000)
		(1.75977654 0.35450546 0.00000000)
		(1.77653631 0.32550682 0.00000000)
		(1.79329609 0.29737863 0.00000000)
		(1.81005587 0.27026121 0.00000000)
		(1.82681564 0.24428982 0.00000000)
		(1.84357542 0.21959402 0.00000000)
		(1.86033520 0.19629701 0.00000000)
		(1.87709497 0.17451499 0.00000000)
		(1.89385475 0.15435664 0.00000000)
		(1.91061453 0.13592250 0.00000000)
		(1.92737430 0.11930454 0.00000000)
		(1.94413408 0.10458565 0.00000000)
		(1.96089385 0.09183925 0.00000000)
		(1.97765363 0.08112893 0.00000000)
		(1.99441341 0.07250813 0.00000000)
		(2.01117318 0.06601983 0.00000000)
		(2.02793296 0.06169642 0.00000000)
		(2.04469274 0.05955945 0.00000000)
		(2.06145251 0.05961958 0.00000000)
		(2.07821229 0.06187652 0.00000000)
		(2.09497207 0.06631901 0.00000000)
		(2.11173184 0.07292489 0.00000000)
		(2.12849162 0.08166119 0.00000000)
		(2.14525140 0.09248435 0.00000000)
		(2.16201117 0.10534038 0.00000000)
		(2.17877095 0.12016513 0.00000000)
		(2.19553073 0.13688467 0.00000000)
		(2.21229050 0.15541557 0.00000000)
		(2.22905028 0.17566542 0.00000000)
		(2.24581006 0.19753318 0.00000000)
		(2.26256983 0.22090977 0.00000000)
		(2.27932961 0.24567859 0.00000000)
		(2.29608939 0.27171607 0.00000000)
		(2.31284916 0.29889233 0.00000000)
		(2.32960894 0.32707180 0.00000000)
		(2.34636872 0.35611391 0.00000000)
		(2.36312849 0.38587379 0.00000000)
		(2.37988827 0.41620297 0.00000000)
		(2.39664804 0.44695017 0.00000000)
		(2.41340782 0.47796201 0.00000000)
		(2.43016760 0.50908378 0.00000000)
		(2.44692737 0.54016024 0.00000000)
		(2.46368715 0.57103636 0.00000000)
		(2.48044693 0.60155812 0.00000000)
		(2.49720670 0.63157327 0.00000000)
		(2.51396648 0.66093207 0.00000000)
		(2.53072626 0.68948807 0.00000000)
		(2.54748603 0.71709883 0.00000000)
		(2.56424581 0.74362660 0.00000000)