/*--------------------------------*- C++ -*----------------------------------*\\
/*--------------------------------*- C++ -*----------------------------------*\\
| =========                 |                                                 |
| \\\\      /  F ield         | OpenFOAM: The Open Source CFD Toolbox           |
|  \\\\    /   O peration     | Version:  v2012                                 |
|   \\\\  /    A nd           | Website:  www.openfoam.com                      |
|    \\\\/     M anipulation  |                                                 |
\\*---------------------------------------------------------------------------*/
FoamFile
{
    version     2.0;
    format      ascii;
    class       dictionary;
    object      blockMeshDict;
}
// * * * * * * * * * * * * * * * * * * * * * * * * * * * * * * * * * * * * * //

scale   0.01;

xmin -1;
xmax 5;
ymin 0;
ymax 0.5;
zmin 0;
zmax 0.1;

vertices
(
    (-1.00000000 -0.24189262 0.00000000)
    (4.00000000 0.08767840 0.00000000)
    (4.00000000 0.58767840 0.00000000)
    (-1.00000000 0.25810738 0.00000000)
    (-1.00000000 -0.24189262 0.10000000)
    (4.00000000 0.08767840 0.10000000)
    (4.00000000 0.58767840 0.10000000)
    (-1.00000000 0.25810738 0.10000000)
);

blocks
(
    hex (0 1 2 3 4 5 6 7) (200 20 1) simpleGrading (1 1 1)
);

edges
(
	polyLine 0 1
	(
		(-1.00000000 -0.24189262 0.00000000)
		(-0.98000000 -0.24189262 0.00000000)
		(-0.96000000 -0.24189262 0.00000000)
		(-0.94000000 -0.24189262 0.00000000)
		(-0.92000000 -0.24189262 0.00000000)
		(-0.90000000 -0.24189262 0.00000000)
		(-0.88000000 -0.24189262 0.00000000)
		(-0.86000000 -0.24189262 0.00000000)
		(-0.84000000 -0.24189262 0.00000000)
		(-0.82000000 -0.24189262 0.00000000)
		(-0.80000000 -0.24189262 0.00000000)
		(-0.78000000 -0.24189262 0.00000000)
		(-0.76000000 -0.24189262 0.00000000)
		(-0.74000000 -0.24189262 0.00000000)
		(-0.72000000 -0.24189262 0.00000000)
		(-0.70000000 -0.24189262 0.00000000)
		(-0.68000000 -0.24189262 0.00000000)
		(-0.66000000 -0.24189262 0.00000000)
		(-0.64000000 -0.24189262 0.00000000)
		(-0.62000000 -0.24189262 0.00000000)
		(-0.60000000 -0.24189262 0.00000000)
		(-0.58000000 -0.24189262 0.00000000)
		(-0.56000000 -0.24189262 0.00000000)
		(-0.54000000 -0.24189262 0.00000000)
		(-0.52000000 -0.24189262 0.00000000)
		(-0.50000000 -0.24189262 0.00000000)
		(-0.48000000 -0.24189262 0.00000000)
		(-0.46000000 -0.24189262 0.00000000)
		(-0.44000000 -0.24189262 0.00000000)
		(-0.42000000 -0.24189262 0.00000000)
		(-0.40000000 -0.24189262 0.00000000)
		(-0.38000000 -0.24189262 0.00000000)
		(-0.36000000 -0.24189262 0.00000000)
		(-0.34000000 -0.24189262 0.00000000)
		(-0.32000000 -0.24189262 0.00000000)
		(-0.30000000 -0.24189262 0.00000000)
		(-0.28000000 -0.24189262 0.00000000)
		(-0.26000000 -0.24189262 0.00000000)
		(-0.24000000 -0.24189262 0.00000000)
		(-0.22000000 -0.24189262 0.00000000)
		(-0.20000000 -0.24189262 0.00000000)
		(-0.18000000 -0.24189262 0.00000000)
		(-0.16000000 -0.24189262 0.00000000)
		(-0.14000000 -0.24189262 0.00000000)
		(-0.12000000 -0.24189262 0.00000000)
		(-0.10000000 -0.24189262 0.00000000)
		(-0.08162011 -0.24197071 0.00000000)
		(-0.06324022 -0.24220497 0.00000000)
		(-0.04486034 -0.24259540 0.00000000)
		(-0.02648045 -0.24314200 0.00000000)
		(-0.00810056 -0.24384477 0.00000000)
		(0.01027933 -0.24470372 0.00000000)
		(0.02865922 -0.24571883 0.00000000)
		(0.04703911 -0.24689012 0.00000000)
		(0.06541899 -0.24821758 0.00000000)
		(0.08379888 -0.24970122 0.00000000)
		(0.10055866 -0.24849594 0.00000000)
		(0.11731844 -0.24637076 0.00000000)
		(0.13407821 -0.24333354 0.00000000)
		(0.15083799 -0.23939552 0.00000000)
		(0.16759777 -0.23457129 0.00000000)
		(0.18435754 -0.22887870 0.00000000)
		(0.20111732 -0.22233883 0.00000000)
		(0.21787709 -0.21497588 0.00000000)
		(0.23463687 -0.20681712 0.00000000)
		(0.25139665 -0.19789274 0.00000000)
		(0.26815642 -0.18823578 0.00000000)
		(0.28491620 -0.17788199 0.00000000)
		(0.30167598 -0.16686971 0.00000000)
		(0.31843575 -0.15523969 0.00000000)
		(0.33519553 -0.14303499 0.00000000)
		(0.35195531 -0.13030079 0.00000000)
		(0.36871508 -0.11708423 0.00000000)
		(0.38547486 -0.10343424 0.00000000)
		(0.40223464 -0.08940134 0.00000000)
		(0.41899441 -0.07503749 0.00000000)
		(0.43575419 -0.06039586 0.00000000)
		(0.45251397 -0.04553066 0.00000000)
		(0.46927374 -0.03049690 0.00000000)
		(0.48603352 -0.01535024 0.00000000)
		(0.50279330 -0.00014676 0.00000000)
		(0.51955307 0.01505726 0.00000000)
		(0.53631285 0.03020554 0.00000000)
		(0.55307263 0.04524201 0.00000000)
		(0.56983240 0.06011099 0.00000000)
		(0.58659218 0.07475745 0.00000000)
		(0.60335196 0.08912716 0.00000000)
		(0.62011173 0.10316694 0.00000000)
		(0.63687151 0.11682480 0.00000000)
		(0.65363128 0.13005019 0.00000000)
		(0.67039106 0.14279415 0.00000000)
		(0.68715084 0.15500950 0.00000000)
		(0.70391061 0.16665102 0.00000000)
		(0.72067039 0.17767562 0.00000000)
		(0.73743017 0.18804248 0.00000000)
		(0.75418994 0.19771323 0.00000000)
		(0.77094972 0.20665207 0.00000000)
		(0.78770950 0.21482590 0.00000000)
		(0.80446927 0.22220447 0.00000000)
		(0.82122905 0.22876046 0.00000000)
		(0.83798883 0.23446961 0.00000000)
		(0.85474860 0.23931077 0.00000000)
		(0.87150838 0.24326604 0.00000000)
		(0.88826816 0.24632075 0.00000000)
		(0.90502793 0.24846362 0.00000000)
		(0.92178771 0.24968670 0.00000000)
		(0.93854749 0.24998547 0.00000000)
		(0.95530726 0.24935881 0.00000000)
		(0.97206704 0.24780906 0.00000000)
		(0.98882682 0.24534195 0.00000000)
		(1.00558659 0.24196660 0.00000000)
		(1.02234637 0.23769552 0.00000000)
		(1.03910615 0.23254452 0.00000000)
		(1.05586592 0.22653267 0.00000000)
		(1.07262570 0.21968221 0.00000000)
		(1.08938547 0.21201852 0.00000000)
		(1.10614525 0.20356995 0.00000000)
		(1.12290503 0.19436779 0.00000000)
		(1.13966480 0.18444611 0.00000000)
		(1.15642458 0.17384162 0.00000000)
		(1.17318436 0.16259359 0.00000000)
		(1.18994413 0.15074366 0.00000000)
		(1.20670391 0.13833568 0.00000000)
		(1.22346369 0.12541561 0.00000000)
		(1.24022346 0.11203126 0.00000000)
		(1.25698324 0.09823218 0.00000000)
		(1.27374302 0.08406946 0.00000000)
		(1.29050279 0.06959552 0.00000000)
		(1.30726257 0.05486395 0.00000000)
		(1.32402235 0.03992928 0.00000000)
		(1.34078212 0.02484679 0.00000000)
		(1.35754190 0.00967232 0.00000000)
		(1.37430168 -0.00553795 0.00000000)
		(1.39106145 -0.02072772 0.00000000)
		(1.40782123 -0.03584076 0.00000000)
		(1.42458101 -0.05082112 0.00000000)
		(1.44134078 -0.06561335 0.00000000)
		(1.45810056 -0.08016269 0.00000000)
		(1.47486034 -0.09441527 0.00000000)
		(1.49162011 -0.10831833 0.00000000)
		(1.50837989 -0.12182041 0.00000000)
		(1.52513966 -0.13487153 0.00000000)
		(1.54189944 -0.14742337 0.00000000)
		(1.55865922 -0.15942946 0.00000000)
		(1.57541899 -0.17084536 0.00000000)
		(1.59217877 -0.18162881 0.00000000)
		(1.60893855 -0.19173989 0.00000000)
		(1.62569832 -0.20114117 0.00000000)
		(1.64245810 -0.20979785 0.00000000)
		(1.65921788 -0.21767787 0.00000000)
		(1.67597765 -0.22475208 0.00000000)
		(1.69273743 -0.23099428 0.00000000)
		(1.70949721 -0.23638136 0.00000000)
		(1.72625698 -0.24089339 0.00000000)
		(1.74301676 -0.24451365 0.00000000)
		(1.75977654 -0.24722875 0.00000000)
		(1.77653631 -0.24902864 0.00000000)
		(1.79329609 -0.24990665 0.00000000)
		(1.81005587 -0.24985953 0.00000000)
		(1.82681564 -0.24888746 0.00000000)
		(1.84357542 -0.24699404 0.00000000)
		(1.86033520 -0.24418626 0.00000000)
		(1.87709497 -0.24047454 0.00000000)
		(1.89385475 -0.23587261 0.00000000)
		(1.91061453 -0.23039750 0.00000000)
		(1.92737430 -0.22406949 0.00000000)
		(1.94413408 -0.21691199 0.00000000)
		(1.96089385 -0.20895151 0.00000000)
		(1.97765363 -0.20021752 0.00000000)
		(1.99441341 -0.19074234 0.00000000)
		(2.01117318 -0.18056105 0.00000000)
		(2.02793296 -0.16971135 0.00000000)
		(2.04469274 -0.15823339 0.00000000)
		(2.06145251 -0.14616967 0.00000000)
		(2.07821229 -0.13356484 0.00000000)
		(2.09497207 -0.12046558 0.00000000)
		(2.11173184 -0.10692036 0.00000000)
		(2.12849162 -0.09297933 0.00000000)
		(2.14525140 -0.07869411 0.00000000)
		(2.16201117 -0.06411757 0.00000000)
		(2.17877095 -0.04930367 0.00000000)
		(2.19553073 -0.03430725 0.00000000)
		(2.21229050 -0.01918384 0.00000000)
		(2.22905028 -0.00398940 0.00000000)
		(2.24581006 0.01121980 0.00000000)
		(2.26256983 0.02638747 0.00000000)
		(2.27932961 0.04145745 0.00000000)
		(2.29608939 0.05637396 0.00000000)
		(2.31284916 0.07108179 0.00000000)
		(2.32960894 0.08552647 0.00000000)
		(2.34636872 0.09965455 0.00000000)
		(2.36312849 0.11341371 0.00000000)
		(2.37988827 0.12675303 0.00000000)
		(2.39664804 0.13962313 0.00000000)
		(2.41340782 0.15197635 0.00000000)
		(2.43016760 0.16376697 0.00000000)
		(2.44692737 0.17495135 0.00000000)
		(2.46368715 0.18548808 0.00000000)
		(2.48044693 0.19533814 0.00000000)
		(2.49720670 0.20446509 0.00000000)
		(2.51396648 0.21283513 0.00000000)
		(2.53072626 0.22041728 0.00000000)
		(2.54748603 0.22718347 0.00000000)
		(2.56424581 0.23310865 0.00000000)
		(2.58100559 0.23817088 0.00000000)
		(2.59776536 0.24235143 0.00000000)
		(2.61452514 0.24563483 0.00000000)
		(2.63128492 0.24800891 0.00000000)
		(2.64804469 0.24946488 0.00000000)
		(2.66480447 0.24999737 0.00000000)
		(2.68156425 0.24960439 0.00000000)
		(2.69832402 0.24828740 0.00000000)
		(2.71508380 0.24605129 0.00000000)
		(2.73184358 0.24290431 0.00000000)
		(2.74860335 0.23885813 0.00000000)
		(2.76536313 0.23392772 0.00000000)
		(2.78212291 0.22813134 0.00000000)
		(2.79888268 0.22149044 0.00000000)
		(2.81564246 0.21402961 0.00000000)
		(2.83240223 0.20577646 0.00000000)
		(2.84916201 0.19676155 0.00000000)
		(2.86592179 0.18701825 0.00000000)
		(2.88268156 0.17658263 0.00000000)
		(2.89944134 0.16549332 0.00000000)
		(2.91620112 0.15379137 0.00000000)
		(2.93296089 0.14152010 0.00000000)
		(2.95166480 0.13129018 0.00000000)
		(2.97036872 0.12213709 0.00000000)
		(2.98907263 0.11406083 0.00000000)
		(3.00777654 0.10706141 0.00000000)
		(3.02648045 0.10113883 0.00000000)
		(3.04518436 0.09629307 0.00000000)
		(3.06388827 0.09252416 0.00000000)
		(3.08259218 0.08983207 0.00000000)
		(3.10129609 0.08821682 0.00000000)
		(3.12000000 0.08767840 0.00000000)
		(3.14000000 0.08767840 0.00000000)
		(3.16000000 0.08767840 0.00000000)
		(3.18000000 0.08767840 0.00000000)
		(3.20000000 0.08767840 0.00000000)
		(3.22000000 0.08767840 0.00000000)
		(3.24000000 0.08767840 0.00000000)
		(3.26000000 0.08767840 0.00000000)
		(3.28000000 0.08767840 0.00000000)
		(3.30000000 0.08767840 0.00000000)
		(3.32000000 0.08767840 0.00000000)
		(3.34000000 0.08767840 0.00000000)
		(3.36000000 0.08767840 0.00000000)
		(3.38000000 0.08767840 0.00000000)
		(3.40000000 0.08767840 0.00000000)
		(3.42000000 0.08767840 0.00000000)
		(3.44000000 0.08767840 0.00000000)
		(3.46000000 0.08767840 0.00000000)
		(3.48000000 0.08767840 0.00000000)
		(3.50000000 0.08767840 0.00000000)
		(3.52000000 0.08767840 0.00000000)
		(3.54000000 0.08767840 0.00000000)
		(3.56000000 0.08767840 0.00000000)
		(3.58000000 0.08767840 0.00000000)
		(3.60000000 0.08767840 0.00000000)
		(3.62000000 0.08767840 0.00000000)
		(3.64000000 0.08767840 0.00000000)
		(3.66000000 0.08767840 0.00000000)
		(3.68000000 0.08767840 0.00000000)
		(3.70000000 0.08767840 0.00000000)
		(3.72000000 0.08767840 0.00000000)
		(3.74000000 0.08767840 0.00000000)
		(3.76000000 0.08767840 0.00000000)
		(3.78000000 0.08767840 0.00000000)
		(3.80000000 0.08767840 0.00000000)
		(3.82000000 0.08767840 0.00000000)
		(3.84000000 0.08767840 0.00000000)
		(3.86000000 0.08767840 0.00000000)
		(3.88000000 0.08767840 0.00000000)
		(3.90000000 0.08767840 0.00000000)
		(3.92000000 0.08767840 0.00000000)
		(3.94000000 0.08767840 0.00000000)
		(3.96000000 0.08767840 0.00000000)
		(3.98000000 0.08767840 0.00000000)
		(4.00000000 0.08767840 0.00000000)
	)
	polyLine 4 5
	(
		(-1.00000000 -0.24189262 0.10000000)
		(-0.98000000 -0.24189262 0.10000000)
		(-0.96000000 -0.24189262 0.10000000)
		(-0.94000000 -0.24189262 0.10000000)
		(-0.92000000 -0.24189262 0.10000000)
		(-0.90000000 -0.24189262 0.10000000)
		(-0.88000000 -0.24189262 0.10000000)
		(-0.86000000 -0.24189262 0.10000000)
		(-0.84000000 -0.24189262 0.10000000)
		(-0.82000000 -0.24189262 0.10000000)
		(-0.80000000 -0.24189262 0.10000000)
		(-0.78000000 -0.24189262 0.10000000)
		(-0.76000000 -0.24189262 0.10000000)
		(-0.74000000 -0.24189262 0.10000000)
		(-0.72000000 -0.24189262 0.10000000)
		(-0.70000000 -0.24189262 0.10000000)
		(-0.68000000 -0.24189262 0.10000000)
		(-0.66000000 -0.24189262 0.10000000)
		(-0.64000000 -0.24189262 0.10000000)
		(-0.62000000 -0.24189262 0.10000000)
		(-0.60000000 -0.24189262 0.10000000)
		(-0.58000000 -0.24189262 0.10000000)
		(-0.56000000 -0.24189262 0.10000000)
		(-0.54000000 -0.24189262 0.10000000)
		(-0.52000000 -0.24189262 0.10000000)
		(-0.50000000 -0.24189262 0.10000000)
		(-0.48000000 -0.24189262 0.10000000)
		(-0.46000000 -0.24189262 0.10000000)
		(-0.44000000 -0.24189262 0.10000000)
		(-0.42000000 -0.24189262 0.10000000)
		(-0.40000000 -0.24189262 0.10000000)
		(-0.38000000 -0.24189262 0.10000000)
		(-0.36000000 -0.24189262 0.10000000)
		(-0.34000000 -0.24189262 0.10000000)
		(-0.32000000 -0.24189262 0.10000000)
		(-0.30000000 -0.24189262 0.10000000)
		(-0.28000000 -0.24189262 0.10000000)
		(-0.26000000 -0.24189262 0.10000000)
		(-0.24000000 -0.24189262 0.10000000)
		(-0.22000000 -0.24189262 0.10000000)
		(-0.20000000 -0.24189262 0.10000000)
		(-0.18000000 -0.24189262 0.10000000)
		(-0.16000000 -0.24189262 0.10000000)
		(-0.14000000 -0.24189262 0.10000000)
		(-0.12000000 -0.24189262 0.10000000)
		(-0.10000000 -0.24189262 0.10000000)
		(-0.08162011 -0.24197071 0.10000000)
		(-0.06324022 -0.24220497 0.10000000)
		(-0.04486034 -0.24259540 0.10000000)
		(-0.02648045 -0.24314200 0.10000000)
		(-0.00810056 -0.24384477 0.10000000)
		(0.01027933 -0.24470372 0.10000000)
		(0.02865922 -0.24571883 0.10000000)
		(0.04703911 -0.24689012 0.10000000)
		(0.06541899 -0.24821758 0.10000000)
		(0.08379888 -0.24970122 0.10000000)
		(0.10055866 -0.24849594 0.10000000)
		(0.11731844 -0.24637076 0.10000000)
		(0.13407821 -0.24333354 0.10000000)
		(0.15083799 -0.23939552 0.10000000)
		(0.16759777 -0.23457129 0.10000000)
		(0.18435754 -0.22887870 0.10000000)
		(0.20111732 -0.22233883 0.10000000)
		(0.21787709 -0.21497588 0.10000000)
		(0.23463687 -0.20681712 0.10000000)
		(0.25139665 -0.19789274 0.10000000)
		(0.26815642 -0.18823578 0.10000000)
		(0.28491620 -0.17788199 0.10000000)
		(0.30167598 -0.16686971 0.10000000)
		(0.31843575 -0.15523969 0.10000000)
		(0.33519553 -0.14303499 0.10000000)
		(0.35195531 -0.13030079 0.10000000)
		(0.36871508 -0.11708423 0.10000000)
		(0.38547486 -0.10343424 0.10000000)
		(0.40223464 -0.08940134 0.10000000)
		(0.41899441 -0.07503749 0.10000000)
		(0.43575419 -0.06039586 0.10000000)
		(0.45251397 -0.04553066 0.10000000)
		(0.46927374 -0.03049690 0.10000000)
		(0.48603352 -0.01535024 0.10000000)
		(0.50279330 -0.00014676 0.10000000)
		(0.51955307 0.01505726 0.10000000)
		(0.53631285 0.03020554 0.10000000)
		(0.55307263 0.04524201 0.10000000)
		(0.56983240 0.06011099 0.10000000)
		(0.58659218 0.07475745 0.10000000)
		(0.60335196 0.08912716 0.10000000)
		(0.62011173 0.10316694 0.10000000)
		(0.63687151 0.11682480 0.10000000)
		(0.65363128 0.13005019 0.10000000)
		(0.67039106 0.14279415 0.10000000)
		(0.68715084 0.15500950 0.10000000)
		(0.70391061 0.16665102 0.10000000)
		(0.72067039 0.17767562 0.10000000)
		(0.73743017 0.18804248 0.10000000)
		(0.75418994 0.19771323 0.10000000)
		(0.77094972 0.20665207 0.10000000)
		(0.78770950 0.21482590 0.10000000)
		(0.80446927 0.22220447 0.10000000)
		(0.82122905 0.22876046 0.10000000)
		(0.83798883 0.23446961 0.10000000)
		(0.85474860 0.23931077 0.10000000)
		(0.87150838 0.24326604 0.10000000)
		(0.88826816 0.24632075 0.10000000)
		(0.90502793 0.24846362 0.10000000)
		(0.92178771 0.24968670 0.10000000)
		(0.93854749 0.24998547 0.10000000)
		(0.95530726 0.24935881 0.10000000)
		(0.97206704 0.24780906 0.10000000)
		(0.98882682 0.24534195 0.10000000)
		(1.00558659 0.24196660 0.10000000)
		(1.02234637 0.23769552 0.10000000)
		(1.03910615 0.23254452 0.10000000)
		(1.05586592 0.22653267 0.10000000)
		(1.07262570 0.21968221 0.10000000)
		(1.08938547 0.21201852 0.10000000)
		(1.10614525 0.20356995 0.10000000)
		(1.12290503 0.19436779 0.10000000)
		(1.13966480 0.18444611 0.10000000)
		(1.15642458 0.17384162 0.10000000)
		(1.17318436 0.16259359 0.10000000)
		(1.18994413 0.15074366 0.10000000)
		(1.20670391 0.13833568 0.10000000)
		(1.22346369 0.12541561 0.10000000)
		(1.24022346 0.11203126 0.10000000)
		(1.25698324 0.09823218 0.10000000)
		(1.27374302 0.08406946 0.10000000)
		(1.29050279 0.06959552 0.10000000)
		(1.30726257 0.05486395 0.10000000)
		(1.32402235 0.03992928 0.10000000)
		(1.34078212 0.02484679 0.10000000)
		(1.35754190 0.00967232 0.10000000)
		(1.37430168 -0.00553795 0.10000000)
		(1.39106145 -0.02072772 0.10000000)
		(1.40782123 -0.03584076 0.10000000)
		(1.42458101 -0.05082112 0.10000000)
		(1.44134078 -0.06561335 0.10000000)
		(1.45810056 -0.08016269 0.10000000)
		(1.47486034 -0.09441527 0.10000000)
		(1.49162011 -0.10831833 0.10000000)
		(1.50837989 -0.12182041 0.10000000)
		(1.52513966 -0.13487153 0.10000000)
		(1.54189944 -0.14742337 0.10000000)
		(1.55865922 -0.15942946 0.10000000)
		(1.57541899 -0.17084536 0.10000000)
		(1.59217877 -0.18162881 0.10000000)
		(1.60893855 -0.19173989 0.10000000)
		(1.62569832 -0.20114117 0.10000000)
		(1.64245810 -0.20979785 0.10000000)
		(1.65921788 -0.21767787 0.10000000)
		(1.67597765 -0.22475208 0.10000000)
		(1.69273743 -0.23099428 0.10000000)
		(1.70949721 -0.23638136 0.10000000)
		(1.72625698 -0.24089339 0.10000000)
		(1.74301676 -0.24451365 0.10000000)
		(1.75977654 -0.24722875 0.10000000)
		(1.77653631 -0.24902864 0.10000000)
		(1.79329609 -0.24990665 0.10000000)
		(1.81005587 -0.24985953 0.10000000)
		(1.82681564 -0.24888746 0.10000000)
		(1.84357542 -0.24699404 0.10000000)
		(1.86033520 -0.24418626 0.10000000)
		(1.87709497 -0.24047454 0.10000000)
		(1.89385475 -0.23587261 0.10000000)
		(1.91061453 -0.23039750 0.10000000)
		(1.92737430 -0.22406949 0.10000000)
		(1.94413408 -0.21691199 0.10000000)
		(1.96089385 -0.20895151 0.10000000)
		(1.97765363 -0.20021752 0.10000000)
		(1.99441341 -0.19074234 0.10000000)
		(2.01117318 -0.18056105 0.10000000)
		(2.02793296 -0.16971135 0.10000000)
		(2.04469274 -0.15823339 0.10000000)
		(2.06145251 -0.14616967 0.10000000)
		(2.07821229 -0.13356484 0.10000000)
		(2.09497207 -0.12046558 0.10000000)
		(2.11173184 -0.10692036 0.10000000)
		(2.12849162 -0.09297933 0.10000000)
		(2.14525140 -0.07869411 0.10000000)
		(2.16201117 -0.06411757 0.10000000)
		(2.17877095 -0.04930367 0.10000000)
		(2.19553073 -0.03430725 0.10000000)
		(2.21229050 -0.01918384 0.10000000)
		(2.22905028 -0.00398940 0.10000000)
		(2.24581006 0.01121980 0.10000000)
		(2.26256983 0.02638747 0.10000000)
		(2.27932961 0.04145745 0.10000000)
		(2.29608939 0.05637396 0.10000000)
		(2.31284916 0.07108179 0.10000000)
		(2.32960894 0.08552647 0.10000000)
		(2.34636872 0.09965455 0.10000000)
		(2.36312849 0.11341371 0.10000000)
		(2.37988827 0.12675303 0.10000000)
		(2.39664804 0.13962313 0.10000000)
		(2.41340782 0.15197635 0.10000000)
		(2.43016760 0.16376697 0.10000000)
		(2.44692737 0.17495135 0.10000000)
		(2.46368715 0.18548808 0.10000000)
		(2.48044693 0.19533814 0.10000000)
		(2.49720670 0.20446509 0.10000000)
		(2.51396648 0.21283513 0.10000000)
		(2.53072626 0.22041728 0.10000000)
		(2.54748603 0.22718347 0.10000000)
		(2.56424581 0.23310865 0.10000000)
		(2.58100559 0.23817088 0.10000000)
		(2.59776536 0.24235143 0.10000000)
		(2.61452514 0.24563483 0.10000000)
		(2.63128492 0.24800891 0.10000000)
		(2.64804469 0.24946488 0.10000000)
		(2.66480447 0.24999737 0.10000000)
		(2.68156425 0.24960439 0.10000000)
		(2.69832402 0.24828740 0.10000000)
		(2.71508380 0.24605129 0.10000000)
		(2.73184358 0.24290431 0.10000000)
		(2.74860335 0.23885813 0.10000000)
		(2.76536313 0.23392772 0.10000000)
		(2.78212291 0.22813134 0.10000000)
		(2.79888268 0.22149044 0.10000000)
		(2.81564246 0.21402961 0.10000000)
		(2.83240223 0.20577646 0.10000000)
		(2.84916201 0.19676155 0.10000000)
		(2.86592179 0.18701825 0.10000000)
		(2.88268156 0.17658263 0.10000000)
		(2.89944134 0.16549332 0.10000000)
		(2.91620112 0.15379137 0.10000000)
		(2.93296089 0.14152010 0.10000000)
		(2.95166480 0.13129018 0.10000000)
		(2.97036872 0.12213709 0.10000000)
		(2.98907263 0.11406083 0.10000000)
		(3.00777654 0.10706141 0.10000000)
		(3.02648045 0.10113883 0.10000000)
		(3.04518436 0.09629307 0.10000000)
		(3.06388827 0.09252416 0.10000000)
		(3.08259218 0.08983207 0.10000000)
		(3.10129609 0.08821682 0.10000000)
		(3.12000000 0.08767840 0.10000000)
		(3.14000000 0.08767840 0.10000000)
		(3.16000000 0.08767840 0.10000000)
		(3.18000000 0.08767840 0.10000000)
		(3.20000000 0.08767840 0.10000000)
		(3.22000000 0.08767840 0.10000000)
		(3.24000000 0.08767840 0.10000000)
		(3.26000000 0.08767840 0.10000000)
		(3.28000000 0.08767840 0.10000000)
		(3.30000000 0.08767840 0.10000000)
		(3.32000000 0.08767840 0.10000000)
		(3.34000000 0.08767840 0.10000000)
		(3.36000000 0.08767840 0.10000000)
		(3.38000000 0.08767840 0.10000000)
		(3.40000000 0.08767840 0.10000000)
		(3.42000000 0.08767840 0.10000000)
		(3.44000000 0.08767840 0.10000000)
		(3.46000000 0.08767840 0.10000000)
		(3.48000000 0.08767840 0.10000000)
		(3.50000000 0.08767840 0.10000000)
		(3.52000000 0.08767840 0.10000000)
		(3.54000000 0.08767840 0.10000000)
		(3.56000000 0.08767840 0.10000000)
		(3.58000000 0.08767840 0.10000000)
		(3.60000000 0.08767840 0.10000000)
		(3.62000000 0.08767840 0.10000000)
		(3.64000000 0.08767840 0.10000000)
		(3.66000000 0.08767840 0.10000000)
		(3.68000000 0.08767840 0.10000000)
		(3.70000000 0.08767840 0.10000000)
		(3.72000000 0.08767840 0.10000000)
		(3.74000000 0.08767840 0.10000000)
		(3.76000000 0.08767840 0.10000000)
		(3.78000000 0.08767840 0.10000000)
		(3.80000000 0.08767840 0.10000000)
		(3.82000000 0.08767840 0.10000000)
		(3.84000000 0.08767840 0.10000000)
		(3.86000000 0.08767840 0.10000000)
		(3.88000000 0.08767840 0.10000000)
		(3.90000000 0.08767840 0.10000000)
		(3.92000000 0.08767840 0.10000000)
		(3.94000000 0.08767840 0.10000000)
		(3.96000000 0.08767840 0.10000000)
		(3.98000000 0.08767840 0.10000000)
		(4.00000000 0.08767840 0.10000000)
	)
	polyLine 3 2
	(
		(-1.00000000 0.25810738 0.00000000)
		(-0.98000000 0.26001746 0.00000000)
		(-0.96000000 0.26192754 0.00000000)
		(-0.94000000 0.26383762 0.00000000)
		(-0.92000000 0.26574770 0.00000000)
		(-0.90000000 0.26765778 0.00000000)
		(-0.88000000 0.26956786 0.00000000)
		(-0.86000000 0.27147794 0.00000000)
		(-0.84000000 0.27338802 0.00000000)
		(-0.82000000 0.27529810 0.00000000)
		(-0.80000000 0.27720818 0.00000000)
		(-0.78000000 0.27911826 0.00000000)
		(-0.76000000 0.28102834 0.00000000)
		(-0.74000000 0.28293843 0.00000000)
		(-0.72000000 0.28484851 0.00000000)
		(-0.70000000 0.28675859 0.00000000)
		(-0.68000000 0.28866867 0.00000000)
		(-0.66000000 0.29057875 0.00000000)
		(-0.64000000 0.29248883 0.00000000)
		(-0.62000000 0.29439891 0.00000000)
		(-0.60000000 0.29630899 0.00000000)
		(-0.58000000 0.29821907 0.00000000)
		(-0.56000000 0.30012915 0.00000000)
		(-0.54000000 0.30203923 0.00000000)
		(-0.52000000 0.30394931 0.00000000)
		(-0.50000000 0.30585939 0.00000000)
		(-0.48000000 0.30776947 0.00000000)
		(-0.46000000 0.30967955 0.00000000)
		(-0.44000000 0.31158964 0.00000000)
		(-0.42000000 0.31349972 0.00000000)
		(-0.40000000 0.31540980 0.00000000)
		(-0.38000000 0.31731988 0.00000000)
		(-0.36000000 0.31922996 0.00000000)
		(-0.34000000 0.32114004 0.00000000)
		(-0.32000000 0.32305012 0.00000000)
		(-0.30000000 0.32496020 0.00000000)
		(-0.28000000 0.32687028 0.00000000)
		(-0.26000000 0.32878036 0.00000000)
		(-0.24000000 0.33069044 0.00000000)
		(-0.22000000 0.33260052 0.00000000)
		(-0.20000000 0.33451060 0.00000000)
		(-0.18000000 0.33642068 0.00000000)
		(-0.16000000 0.33833076 0.00000000)
		(-0.14000000 0.34024085 0.00000000)
		(-0.12000000 0.34215093 0.00000000)
		(-0.10000000 0.34406101 0.00000000)
		(-0.08162011 0.34542793 0.00000000)
		(-0.06324022 0.34655450 0.00000000)
		(-0.04486034 0.34744070 0.00000000)
		(-0.02648045 0.34808655 0.00000000)
		(-0.00810056 0.34849203 0.00000000)
		(0.01027933 0.34865716 0.00000000)
		(0.02865922 0.34858193 0.00000000)
		(0.04703911 0.34826633 0.00000000)
		(0.06541899 0.34771038 0.00000000)
		(0.08379888 0.34691406 0.00000000)
		(0.10055866 0.34765299 0.00000000)
		(0.11731844 0.34895589 0.00000000)
		(0.13407821 0.35081794 0.00000000)
		(0.15083799 0.35323224 0.00000000)
		(0.16759777 0.35618987 0.00000000)
		(0.18435754 0.35967986 0.00000000)
		(0.20111732 0.36368930 0.00000000)
		(0.21787709 0.36820335 0.00000000)
		(0.23463687 0.37320530 0.00000000)
		(0.25139665 0.37867662 0.00000000)
		(0.26815642 0.38459708 0.00000000)
		(0.28491620 0.39094474 0.00000000)
		(0.30167598 0.39769611 0.00000000)
		(0.31843575 0.40482620 0.00000000)
		(0.33519553 0.41230862 0.00000000)
		(0.35195531 0.42011565 0.00000000)
		(0.36871508 0.42821842 0.00000000)
		(0.38547486 0.43658690 0.00000000)
		(0.40223464 0.44519014 0.00000000)
		(0.41899441 0.45399628 0.00000000)
		(0.43575419 0.46297272 0.00000000)
		(0.45251397 0.47208623 0.00000000)
		(0.46927374 0.48130307 0.00000000)
		(0.48603352 0.49058913 0.00000000)
		(0.50279330 0.49991002 0.00000000)
		(0.51955307 0.50923125 0.00000000)
		(0.53631285 0.51851831 0.00000000)
		(0.55307263 0.52773681 0.00000000)
		(0.56983240 0.53685263 0.00000000)
		(0.58659218 0.54583203 0.00000000)
		(0.60335196 0.55464176 0.00000000)
		(0.62011173 0.56324922 0.00000000)
		(0.63687151 0.57162254 0.00000000)
		(0.65363128 0.57973071 0.00000000)
		(0.67039106 0.58754373 0.00000000)
		(0.68715084 0.59503267 0.00000000)
		(0.70391061 0.60216982 0.00000000)
		(0.72067039 0.60892874 0.00000000)
		(0.73743017 0.61528442 0.00000000)
		(0.75418994 0.62121333 0.00000000)
		(0.77094972 0.62669352 0.00000000)
		(0.78770950 0.63170470 0.00000000)
		(0.80446927 0.63622833 0.00000000)
		(0.82122905 0.64024765 0.00000000)
		(0.83798883 0.64374779 0.00000000)
		(0.85474860 0.64671580 0.00000000)
		(0.87150838 0.64914068 0.00000000)
		(0.88826816 0.65101345 0.00000000)
		(0.90502793 0.65232719 0.00000000)
		(0.92178771 0.65307703 0.00000000)
		(0.93854749 0.65326020 0.00000000)
		(0.95530726 0.65287602 0.00000000)
		(0.97206704 0.65192590 0.00000000)
		(0.98882682 0.65041337 0.00000000)
		(1.00558659 0.64834403 0.00000000)
		(1.02234637 0.64572553 0.00000000)
		(1.03910615 0.64256757 0.00000000)
		(1.05586592 0.63888184 0.00000000)
		(1.07262570 0.63468199 0.00000000)
		(1.08938547 0.62998356 0.00000000)
		(1.10614525 0.62480394 0.00000000)
		(1.12290503 0.61916232 0.00000000)
		(1.13966480 0.61307956 0.00000000)
		(1.15642458 0.60657820 0.00000000)
		(1.17318436 0.59968230 0.00000000)
		(1.18994413 0.59241738 0.00000000)
		(1.20670391 0.58481035 0.00000000)
		(1.22346369 0.57688936 0.00000000)
		(1.24022346 0.56868373 0.00000000)
		(1.25698324 0.56022384 0.00000000)
		(1.27374302 0.55154101 0.00000000)
		(1.29050279 0.54266738 0.00000000)
		(1.30726257 0.53363580 0.00000000)
		(1.32402235 0.52447970 0.00000000)
		(1.34078212 0.51523298 0.00000000)
		(1.35754190 0.50592987 0.00000000)
		(1.37430168 0.49660481 0.00000000)
		(1.39106145 0.48729232 0.00000000)
		(1.40782123 0.47802687 0.00000000)
		(1.42458101 0.46884277 0.00000000)
		(1.44134078 0.45977400 0.00000000)
		(1.45810056 0.45085415 0.00000000)
		(1.47486034 0.44211622 0.00000000)
		(1.49162011 0.43359258 0.00000000)
		(1.50837989 0.42531477 0.00000000)
		(1.52513966 0.41731344 0.00000000)
		(1.54189944 0.40961820 0.00000000)
		(1.55865922 0.40225755 0.00000000)
		(1.57541899 0.39525873 0.00000000)
		(1.59217877 0.38864765 0.00000000)
		(1.60893855 0.38244879 0.00000000)
		(1.62569832 0.37668509 0.00000000)
		(1.64245810 0.37137788 0.00000000)
		(1.65921788 0.36654682 0.00000000)
		(1.67597765 0.36220979 0.00000000)
		(1.69273743 0.35838285 0.00000000)
		(1.70949721 0.35508015 0.00000000)
		(1.72625698 0.35231394 0.00000000)
		(1.74301676 0.35009444 0.00000000)
		(1.75977654 0.34842987 0.00000000)
		(1.77653631 0.34732641 0.00000000)
		(1.79329609 0.34678812 0.00000000)
		(1.81005587 0.34681701 0.00000000)
		(1.82681564 0.34741296 0.00000000)
		(1.84357542 0.34857377 0.00000000)
		(1.86033520 0.35029515 0.00000000)
		(1.87709497 0.35257072 0.00000000)
		(1.89385475 0.35539206 0.00000000)
		(1.91061453 0.35874872 0.00000000)
		(1.92737430 0.36262827 0.00000000)
		(1.94413408 0.36701637 0.00000000)
		(1.96089385 0.37189675 0.00000000)
		(1.97765363 0.37725135 0.00000000)
		(1.99441341 0.38306036 0.00000000)
		(2.01117318 0.38930227 0.00000000)
		(2.02793296 0.39595397 0.00000000)
		(2.04469274 0.40299084 0.00000000)
		(2.06145251 0.41038682 0.00000000)
		(2.07821229 0.41811454 0.00000000)
		(2.09497207 0.42614539 0.00000000)
		(2.11173184 0.43444965 0.00000000)
		(2.12849162 0.44299656 0.00000000)
		(2.14525140 0.45175450 0.00000000)
		(2.16201117 0.46069103 0.00000000)
		(2.17877095 0.46977308 0.00000000)
		(2.19553073 0.47896703 0.00000000)
		(2.21229050 0.48823884 0.00000000)
		(2.22905028 0.49755419 0.00000000)
		(2.24581006 0.50687859 0.00000000)
		(2.26256983 0.51617753 0.00000000)
		(2.27932961 0.52541659 0.00000000)
		(2.29608939 0.53456155 0.00000000)
		(2.31284916 0.54357857 0.00000000)
		(2.32960894 0.55243426 0.00000000)
		(2.34636872 0.56109586 0.00000000)
		(2.36312849 0.56953128 0.00000000)
		(2.37988827 0.57770930 0.00000000)
		(2.39664804 0.58559965 0.00000000)
		(2.41340782 0.59317312 0.00000000)
		(2.43016760 0.60040167 0.00000000)
		(2.44692737 0.60725855 0.00000000)
		(2.46368715 0.61371837 0.00000000)
		(2.48044693 0.61975722 0.00000000)
		(2.49720670 0.62535273 0.00000000)
		(2.51396648 0.63048421 0.00000000)
		(2.53072626 0.63513264 0.00000000)