/*--------------------------------*- C++ -*----------------------------------*\\
/*--------------------------------*- C++ -*----------------------------------*\\
| =========                 |                                                 |
| \\\\      /  F ield         | OpenFOAM: The Open Source CFD Toolbox           |
|  \\\\    /   O peration     | Version:  v2012                                 |
|   \\\\  /    A nd           | Website:  www.openfoam.com                      |
|    \\\\/     M anipulation  |                                                 |
\\*---------------------------------------------------------------------------*/
FoamFile
{
    version     2.0;
    format      ascii;
    class       dictionary;
    object      blockMeshDict;
}
// * * * * * * * * * * * * * * * * * * * * * * * * * * * * * * * * * * * * * //

scale   0.01;

xmin -1;
xmax 5;
ymin 0;
ymax 0.5;
zmin 0;
zmax 0.1;

vertices
(
    (-1.00000000 -0.23479624 0.00000000)
    (4.00000000 0.05187967 0.00000000)
    (4.00000000 0.55187967 0.00000000)
    (-1.00000000 0.26520376 0.00000000)
    (-1.00000000 -0.23479624 0.10000000)
    (4.00000000 0.05187967 0.10000000)
    (4.00000000 0.55187967 0.10000000)
    (-1.00000000 0.26520376 0.10000000)
);

blocks
(
    hex (0 1 2 3 4 5 6 7) (200 20 1) simpleGrading (1 1 1)
);

edges
(
	polyLine 0 1
	(
		(-1.00000000 -0.23479624 0.00000000)
		(-0.98000000 -0.23479624 0.00000000)
		(-0.96000000 -0.23479624 0.00000000)
		(-0.94000000 -0.23479624 0.00000000)
		(-0.92000000 -0.23479624 0.00000000)
		(-0.90000000 -0.23479624 0.00000000)
		(-0.88000000 -0.23479624 0.00000000)
		(-0.86000000 -0.23479624 0.00000000)
		(-0.84000000 -0.23479624 0.00000000)
		(-0.82000000 -0.23479624 0.00000000)
		(-0.80000000 -0.23479624 0.00000000)
		(-0.78000000 -0.23479624 0.00000000)
		(-0.76000000 -0.23479624 0.00000000)
		(-0.74000000 -0.23479624 0.00000000)
		(-0.72000000 -0.23479624 0.00000000)
		(-0.70000000 -0.23479624 0.00000000)
		(-0.68000000 -0.23479624 0.00000000)
		(-0.66000000 -0.23479624 0.00000000)
		(-0.64000000 -0.23479624 0.00000000)
		(-0.62000000 -0.23479624 0.00000000)
		(-0.60000000 -0.23479624 0.00000000)
		(-0.58000000 -0.23479624 0.00000000)
		(-0.56000000 -0.23479624 0.00000000)
		(-0.54000000 -0.23479624 0.00000000)
		(-0.52000000 -0.23479624 0.00000000)
		(-0.50000000 -0.23479624 0.00000000)
		(-0.48000000 -0.23479624 0.00000000)
		(-0.46000000 -0.23479624 0.00000000)
		(-0.44000000 -0.23479624 0.00000000)
		(-0.42000000 -0.23479624 0.00000000)
		(-0.40000000 -0.23479624 0.00000000)
		(-0.38000000 -0.23479624 0.00000000)
		(-0.36000000 -0.23479624 0.00000000)
		(-0.34000000 -0.23479624 0.00000000)
		(-0.32000000 -0.23479624 0.00000000)
		(-0.30000000 -0.23479624 0.00000000)
		(-0.28000000 -0.23479624 0.00000000)
		(-0.26000000 -0.23479624 0.00000000)
		(-0.24000000 -0.23479624 0.00000000)
		(-0.22000000 -0.23479624 0.00000000)
		(-0.20000000 -0.23479624 0.00000000)
		(-0.18000000 -0.23479624 0.00000000)
		(-0.16000000 -0.23479624 0.00000000)
		(-0.14000000 -0.23479624 0.00000000)
		(-0.12000000 -0.23479624 0.00000000)
		(-0.10000000 -0.23479624 0.00000000)
		(-0.08162011 -0.23494633 0.00000000)
		(-0.06324022 -0.23539661 0.00000000)
		(-0.04486034 -0.23614707 0.00000000)
		(-0.02648045 -0.23719771 0.00000000)
		(-0.00810056 -0.23854854 0.00000000)
		(0.01027933 -0.24019955 0.00000000)
		(0.02865922 -0.24215075 0.00000000)
		(0.04703911 -0.24440212 0.00000000)
		(0.06541899 -0.24695369 0.00000000)
		(0.08379888 -0.24980543 0.00000000)
		(0.10055866 -0.24993523 0.00000000)
		(0.11731844 -0.24909782 0.00000000)
		(0.13407821 -0.24729642 0.00000000)
		(0.15083799 -0.24453802 0.00000000)
		(0.16759777 -0.24083329 0.00000000)
		(0.18435754 -0.23619656 0.00000000)
		(0.20111732 -0.23064578 0.00000000)
		(0.21787709 -0.22420244 0.00000000)
		(0.23463687 -0.21689145 0.00000000)
		(0.25139665 -0.20874113 0.00000000)
		(0.26815642 -0.19978300 0.00000000)
		(0.28491620 -0.19005174 0.00000000)
		(0.30167598 -0.17958500 0.00000000)
		(0.31843575 -0.16842329 0.00000000)
		(0.33519553 -0.15660980 0.00000000)
		(0.35195531 -0.14419026 0.00000000)
		(0.36871508 -0.13121271 0.00000000)
		(0.38547486 -0.11772739 0.00000000)
		(0.40223464 -0.10378648 0.00000000)
		(0.41899441 -0.08944393 0.00000000)
		(0.43575419 -0.07475524 0.00000000)
		(0.45251397 -0.05977726 0.00000000)
		(0.46927374 -0.04456794 0.00000000)
		(0.48603352 -0.02918616 0.00000000)
		(0.50279330 -0.01369143 0.00000000)
		(0.51955307 0.00185629 0.00000000)
		(0.53631285 0.01739682 0.00000000)
		(0.55307263 0.03287003 0.00000000)
		(0.56983240 0.04821604 0.00000000)
		(0.58659218 0.06337545 0.00000000)
		(0.60335196 0.07828961 0.00000000)
		(0.62011173 0.09290080 0.00000000)
		(0.63687151 0.10715248 0.00000000)
		(0.65363128 0.12098949 0.00000000)
		(0.67039106 0.13435828 0.00000000)
		(0.68715084 0.14720713 0.00000000)
		(0.70391061 0.15948630 0.00000000)
		(0.72067039 0.17114828 0.00000000)
		(0.73743017 0.18214794 0.00000000)
		(0.75418994 0.19244271 0.00000000)
		(0.77094972 0.20199275 0.00000000)
		(0.78770950 0.21076110 0.00000000)
		(0.80446927 0.21871383 0.00000000)
		(0.82122905 0.22582017 0.00000000)
		(0.83798883 0.23205262 0.00000000)
		(0.85474860 0.23738705 0.00000000)
		(0.87150838 0.24180282 0.00000000)
		(0.88826816 0.24528284 0.00000000)
		(0.90502793 0.24781366 0.00000000)
		(0.92178771 0.24938546 0.00000000)
		(0.93854749 0.24999217 0.00000000)
		(0.95530726 0.24963145 0.00000000)
		(0.97206704 0.24830468 0.00000000)
		(0.98882682 0.24601701 0.00000000)
		(1.00558659 0.24277728 0.00000000)
		(1.02234637 0.23859803 0.00000000)
		(1.03910615 0.23349544 0.00000000)
		(1.05586592 0.22748925 0.00000000)
		(1.07262570 0.22060271 0.00000000)
		(1.08938547 0.21286246 0.00000000)
		(1.10614525 0.20429846 0.00000000)
		(1.12290503 0.19494386 0.00000000)
		(1.13966480 0.18483484 0.00000000)
		(1.15642458 0.17401054 0.00000000)
		(1.17318436 0.16251283 0.00000000)
		(1.18994413 0.15038623 0.00000000)
		(1.20670391 0.13767764 0.00000000)
		(1.22346369 0.12443627 0.00000000)
		(1.24022346 0.11071334 0.00000000)
		(1.25698324 0.09656196 0.00000000)
		(1.27374302 0.08203690 0.00000000)
		(1.29050279 0.06719437 0.00000000)
		(1.30726257 0.05209180 0.00000000)
		(1.32402235 0.03678765 0.00000000)
		(1.34078212 0.02134113 0.00000000)
		(1.35754190 0.00581202 0.00000000)
		(1.37430168 -0.00973957 0.00000000)
		(1.39106145 -0.02525348 0.00000000)
		(1.40782123 -0.04066966 0.00000000)
		(1.42458101 -0.05592845 0.00000000)
		(1.44134078 -0.07097080 0.00000000)
		(1.45810056 -0.08573851 0.00000000)
		(1.47486034 -0.10017442 0.00000000)
		(1.49162011 -0.11422267 0.00000000)
		(1.50837989 -0.12782889 0.00000000)
		(1.52513966 -0.14094043 0.00000000)
		(1.54189944 -0.15350655 0.00000000)
		(1.55865922 -0.16547862 0.00000000)
		(1.57541899 -0.17681030 0.00000000)
		(1.59217877 -0.18745775 0.00000000)
		(1.60893855 -0.19737977 0.00000000)
		(1.62569832 -0.20653795 0.00000000)
		(1.64245810 -0.21489685 0.00000000)
		(1.65921788 -0.22242413 0.00000000)
		(1.67597765 -0.22909066 0.00000000)
		(1.69273743 -0.23487063 0.00000000)
		(1.70949721 -0.23974168 0.00000000)
		(1.72625698 -0.24368497 0.00000000)
		(1.74301676 -0.24668522 0.00000000)
		(1.75977654 -0.24873084 0.00000000)
		(1.77653631 -0.24981389 0.00000000)
		(1.79329609 -0.24993020 0.00000000)
		(1.81005587 -0.24907931 0.00000000)
		(1.82681564 -0.24726452 0.00000000)
		(1.84357542 -0.24449284 0.00000000)
		(1.86033520 -0.24077501 0.00000000)
		(1.87709497 -0.23612540 0.00000000)
		(1.89385475 -0.23056203 0.00000000)
		(1.91061453 -0.22410640 0.00000000)
		(1.92737430 -0.21678351 0.00000000)
		(1.94413408 -0.20862170 0.00000000)
		(1.96089385 -0.19965255 0.00000000)
		(1.97765363 -0.18991077 0.00000000)
		(1.99441341 -0.17943405 0.00000000)
		(2.01117318 -0.16826295 0.00000000)
		(2.02793296 -0.15644070 0.00000000)
		(2.04469274 -0.14401303 0.00000000)
		(2.06145251 -0.13102806 0.00000000)
		(2.07821229 -0.11753602 0.00000000)
		(2.09497207 -0.10358914 0.00000000)
		(2.11173184 -0.08924137 0.00000000)
		(2.12849162 -0.07454826 0.00000000)
		(2.14525140 -0.05956665 0.00000000)
		(2.16201117 -0.04435452 0.00000000)
		(2.17877095 -0.02897075 0.00000000)
		(2.19553073 -0.01347487 0.00000000)
		(2.21229050 0.00207316 0.00000000)
		(2.22905028 0.01761317 0.00000000)
		(2.24581006 0.03308501 0.00000000)
		(2.26256983 0.04842882 0.00000000)
		(2.27932961 0.06358522 0.00000000)
		(2.29608939 0.07849555 0.00000000)
		(2.31284916 0.09310211 0.00000000)
		(2.32960894 0.10734838 0.00000000)
		(2.34636872 0.12117923 0.00000000)
		(2.36312849 0.13454112 0.00000000)
		(2.37988827 0.14738236 0.00000000)
		(2.39664804 0.15965325 0.00000000)
		(2.41340782 0.17130630 0.00000000)
		(2.43016760 0.18229642 0.00000000)
		(2.44692737 0.19258107 0.00000000)
		(2.46368715 0.20212046 0.00000000)
		(2.48044693 0.21087767 0.00000000)
		(2.49720670 0.21881880 0.00000000)
		(2.51396648 0.22591314 0.00000000)
		(2.53072626 0.23213322 0.00000000)
		(2.54748603 0.23745498 0.00000000)
		(2.56424581 0.24185781 0.00000000)
		(2.58100559 0.24532468 0.00000000)
		(2.59776536 0.24784218 0.00000000)
		(2.61452514 0.24940056 0.00000000)
		(2.63128492 0.24999380 0.00000000)
		(2.64804469 0.24961958 0.00000000)
		(2.66480447 0.24827938 0.00000000)
		(2.68156425 0.24597836 0.00000000)
		(2.69832402 0.24272543 0.00000000)
		(2.71508380 0.23853319 0.00000000)
		(2.73184358 0.23341786 0.00000000)
		(2.74860335 0.22739923 0.00000000)
		(2.76536313 0.22050059 0.00000000)
		(2.78212291 0.21274864 0.00000000)
		(2.79888268 0.20417339 0.00000000)
		(2.81564246 0.19480800 0.00000000)
		(2.83240223 0.18468874 0.00000000)
		(2.84916201 0.17385475 0.00000000)
		(2.86592179 0.16234797 0.00000000)
		(2.88268156 0.15021292 0.00000000)
		(2.89944134 0.13749657 0.00000000)
		(2.91620112 0.12424812 0.00000000)
		(2.93296089 0.11051884 0.00000000)
		(2.95166480 0.09937740 0.00000000)
		(2.97036872 0.08940874 0.00000000)
		(2.98907263 0.08061286 0.00000000)
		(3.00777654 0.07298977 0.00000000)
		(3.02648045 0.06653946 0.00000000)
		(3.04518436 0.06126194 0.00000000)
		(3.06388827 0.05715719 0.00000000)
		(3.08259218 0.05422523 0.00000000)
		(3.10129609 0.05246606 0.00000000)
		(3.12000000 0.05187967 0.00000000)
		(3.14000000 0.05187967 0.00000000)
		(3.16000000 0.05187967 0.00000000)
		(3.18000000 0.05187967 0.00000000)
		(3.20000000 0.05187967 0.00000000)
		(3.22000000 0.05187967 0.00000000)
		(3.24000000 0.05187967 0.00000000)
		(3.26000000 0.05187967 0.00000000)
		(3.28000000 0.05187967 0.00000000)
		(3.30000000 0.05187967 0.00000000)
		(3.32000000 0.05187967 0.00000000)
		(3.34000000 0.05187967 0.00000000)
		(3.36000000 0.05187967 0.00000000)
		(3.38000000 0.05187967 0.00000000)
		(3.40000000 0.05187967 0.00000000)
		(3.42000000 0.05187967 0.00000000)
		(3.44000000 0.05187967 0.00000000)
		(3.46000000 0.05187967 0.00000000)
		(3.48000000 0.05187967 0.00000000)
		(3.50000000 0.05187967 0.00000000)
		(3.52000000 0.05187967 0.00000000)
		(3.54000000 0.05187967 0.00000000)
		(3.56000000 0.05187967 0.00000000)
		(3.58000000 0.05187967 0.00000000)
		(3.60000000 0.05187967 0.00000000)
		(3.62000000 0.05187967 0.00000000)
		(3.64000000 0.05187967 0.00000000)
		(3.66000000 0.05187967 0.00000000)
		(3.68000000 0.05187967 0.00000000)
		(3.70000000 0.05187967 0.00000000)
		(3.72000000 0.05187967 0.00000000)
		(3.74000000 0.05187967 0.00000000)
		(3.76000000 0.05187967 0.00000000)
		(3.78000000 0.05187967 0.00000000)
		(3.80000000 0.05187967 0.00000000)
		(3.82000000 0.05187967 0.00000000)
		(3.84000000 0.05187967 0.00000000)
		(3.86000000 0.05187967 0.00000000)
		(3.88000000 0.05187967 0.00000000)
		(3.90000000 0.05187967 0.00000000)
		(3.92000000 0.05187967 0.00000000)
		(3.94000000 0.05187967 0.00000000)
		(3.96000000 0.05187967 0.00000000)
		(3.98000000 0.05187967 0.00000000)
		(4.00000000 0.05187967 0.00000000)
	)
	polyLine 4 5
	(
		(-1.00000000 -0.23479624 0.10000000)
		(-0.98000000 -0.23479624 0.10000000)
		(-0.96000000 -0.23479624 0.10000000)
		(-0.94000000 -0.23479624 0.10000000)
		(-0.92000000 -0.23479624 0.10000000)
		(-0.90000000 -0.23479624 0.10000000)
		(-0.88000000 -0.23479624 0.10000000)
		(-0.86000000 -0.23479624 0.10000000)
		(-0.84000000 -0.23479624 0.10000000)
		(-0.82000000 -0.23479624 0.10000000)
		(-0.80000000 -0.23479624 0.10000000)
		(-0.78000000 -0.23479624 0.10000000)
		(-0.76000000 -0.23479624 0.10000000)
		(-0.74000000 -0.23479624 0.10000000)
		(-0.72000000 -0.23479624 0.10000000)
		(-0.70000000 -0.23479624 0.10000000)
		(-0.68000000 -0.23479624 0.10000000)
		(-0.66000000 -0.23479624 0.10000000)
		(-0.64000000 -0.23479624 0.10000000)
		(-0.62000000 -0.23479624 0.10000000)
		(-0.60000000 -0.23479624 0.10000000)
		(-0.58000000 -0.23479624 0.10000000)
		(-0.56000000 -0.23479624 0.10000000)
		(-0.54000000 -0.23479624 0.10000000)
		(-0.52000000 -0.23479624 0.10000000)
		(-0.50000000 -0.23479624 0.10000000)
		(-0.48000000 -0.23479624 0.10000000)
		(-0.46000000 -0.23479624 0.10000000)
		(-0.44000000 -0.23479624 0.10000000)
		(-0.42000000 -0.23479624 0.10000000)
		(-0.40000000 -0.23479624 0.10000000)
		(-0.38000000 -0.23479624 0.10000000)
		(-0.36000000 -0.23479624 0.10000000)
		(-0.34000000 -0.23479624 0.10000000)
		(-0.32000000 -0.23479624 0.10000000)
		(-0.30000000 -0.23479624 0.10000000)
		(-0.28000000 -0.23479624 0.10000000)
		(-0.26000000 -0.23479624 0.10000000)
		(-0.24000000 -0.23479624 0.10000000)
		(-0.22000000 -0.23479624 0.10000000)
		(-0.20000000 -0.23479624 0.10000000)
		(-0.18000000 -0.23479624 0.10000000)
		(-0.16000000 -0.23479624 0.10000000)
		(-0.14000000 -0.23479624 0.10000000)
		(-0.12000000 -0.23479624 0.10000000)
		(-0.10000000 -0.23479624 0.10000000)
		(-0.08162011 -0.23494633 0.10000000)
		(-0.06324022 -0.23539661 0.10000000)
		(-0.04486034 -0.23614707 0.10000000)
		(-0.02648045 -0.23719771 0.10000000)
		(-0.00810056 -0.23854854 0.10000000)
		(0.01027933 -0.24019955 0.10000000)
		(0.02865922 -0.24215075 0.10000000)
		(0.04703911 -0.24440212 0.10000000)
		(0.06541899 -0.24695369 0.10000000)
		(0.08379888 -0.24980543 0.10000000)
		(0.10055866 -0.24993523 0.10000000)
		(0.11731844 -0.24909782 0.10000000)
		(0.13407821 -0.24729642 0.10000000)
		(0.15083799 -0.24453802 0.10000000)
		(0.16759777 -0.24083329 0.10000000)
		(0.18435754 -0.23619656 0.10000000)
		(0.20111732 -0.23064578 0.10000000)
		(0.21787709 -0.22420244 0.10000000)
		(0.23463687 -0.21689145 0.10000000)
		(0.25139665 -0.20874113 0.10000000)
		(0.26815642 -0.19978300 0.10000000)
		(0.28491620 -0.19005174 0.10000000)
		(0.30167598 -0.17958500 0.10000000)
		(0.31843575 -0.16842329 0.10000000)
		(0.33519553 -0.15660980 0.10000000)
		(0.35195531 -0.14419026 0.10000000)
		(0.36871508 -0.13121271 0.10000000)
		(0.38547486 -0.11772739 0.10000000)
		(0.40223464 -0.10378648 0.10000000)
		(0.41899441 -0.08944393 0.10000000)
		(0.43575419 -0.07475524 0.10000000)
		(0.45251397 -0.05977726 0.10000000)
		(0.46927374 -0.04456794 0.10000000)
		(0.48603352 -0.02918616 0.10000000)
		(0.50279330 -0.01369143 0.10000000)
		(0.51955307 0.00185629 0.10000000)
		(0.53631285 0.01739682 0.10000000)
		(0.55307263 0.03287003 0.10000000)
		(0.56983240 0.04821604 0.10000000)
		(0.58659218 0.06337545 0.10000000)
		(0.60335196 0.07828961 0.10000000)
		(0.62011173 0.09290080 0.10000000)
		(0.63687151 0.10715248 0.10000000)
		(0.65363128 0.12098949 0.10000000)
		(0.67039106 0.13435828 0.10000000)
		(0.68715084 0.14720713 0.10000000)
		(0.70391061 0.15948630 0.10000000)
		(0.72067039 0.17114828 0.10000000)
		(0.73743017 0.18214794 0.10000000)
		(0.75418994 0.19244271 0.10000000)
		(0.77094972 0.20199275 0.10000000)
		(0.78770950 0.21076110 0.10000000)
		(0.80446927 0.21871383 0.10000000)
		(0.82122905 0.22582017 0.10000000)
		(0.83798883 0.23205262 0.10000000)
		(0.85474860 0.23738705 0.10000000)
		(0.87150838 0.24180282 0.10000000)
		(0.88826816 0.24528284 0.10000000)
		(0.90502793 0.24781366 0.10000000)
		(0.92178771 0.24938546 0.10000000)
		(0.93854749 0.24999217 0.10000000)
		(0.95530726 0.24963145 0.10000000)
		(0.97206704 0.24830468 0.10000000)
		(0.98882682 0.24601701 0.10000000)
		(1.00558659 0.24277728 0.10000000)
		(1.02234637 0.23859803 0.10000000)
		(1.03910615 0.23349544 0.10000000)
		(1.05586592 0.22748925 0.10000000)
		(1.07262570 0.22060271 0.10000000)
		(1.08938547 0.21286246 0.10000000)
		(1.10614525 0.20429846 0.10000000)
		(1.12290503 0.19494386 0.10000000)
		(1.13966480 0.18483484 0.10000000)
		(1.15642458 0.17401054 0.10000000)
		(1.17318436 0.16251283 0.10000000)
		(1.18994413 0.15038623 0.10000000)
		(1.20670391 0.13767764 0.10000000)
		(1.22346369 0.12443627 0.10000000)
		(1.24022346 0.11071334 0.10000000)
		(1.25698324 0.09656196 0.10000000)
		(1.27374302 0.08203690 0.10000000)
		(1.29050279 0.06719437 0.10000000)
		(1.30726257 0.05209180 0.10000000)
		(1.32402235 0.03678765 0.10000000)
		(1.34078212 0.02134113 0.10000000)
		(1.35754190 0.00581202 0.10000000)
		(1.37430168 -0.00973957 0.10000000)
		(1.39106145 -0.02525348 0.10000000)
		(1.40782123 -0.04066966 0.10000000)
		(1.42458101 -0.05592845 0.10000000)
		(1.44134078 -0.07097080 0.10000000)
		(1.45810056 -0.08573851 0.10000000)
		(1.47486034 -0.10017442 0.10000000)
		(1.49162011 -0.11422267 0.10000000)
		(1.50837989 -0.12782889 0.10000000)
		(1.52513966 -0.14094043 0.10000000)
		(1.54189944 -0.15350655 0.10000000)
		(1.55865922 -0.16547862 0.10000000)
		(1.57541899 -0.17681030 0.10000000)
		(1.59217877 -0.18745775 0.10000000)
		(1.60893855 -0.19737977 0.10000000)
		(1.62569832 -0.20653795 0.10000000)
		(1.64245810 -0.21489685 0.10000000)
		(1.65921788 -0.22242413 0.10000000)
		(1.67597765 -0.22909066 0.10000000)
		(1.69273743 -0.23487063 0.10000000)
		(1.70949721 -0.23974168 0.10000000)
		(1.72625698 -0.24368497 0.10000000)
		(1.74301676 -0.24668522 0.10000000)
		(1.75977654 -0.24873084 0.10000000)
		(1.77653631 -0.24981389 0.10000000)
		(1.79329609 -0.24993020 0.10000000)
		(1.81005587 -0.24907931 0.10000000)
		(1.82681564 -0.24726452 0.10000000)
		(1.84357542 -0.24449284 0.10000000)
		(1.86033520 -0.24077501 0.10000000)
		(1.87709497 -0.23612540 0.10000000)
		(1.89385475 -0.23056203 0.10000000)
		(1.91061453 -0.22410640 0.10000000)
		(1.92737430 -0.21678351 0.10000000)
		(1.94413408 -0.20862170 0.10000000)
		(1.96089385 -0.19965255 0.10000000)
		(1.97765363 -0.18991077 0.10000000)
		(1.99441341 -0.17943405 0.10000000)
		(2.01117318 -0.16826295 0.10000000)
		(2.02793296 -0.15644070 0.10000000)
		(2.04469274 -0.14401303 0.10000000)
		(2.06145251 -0.13102806 0.10000000)
		(2.07821229 -0.11753602 0.10000000)
		(2.09497207 -0.10358914 0.10000000)
		(2.11173184 -0.08924137 0.10000000)
		(2.12849162 -0.07454826 0.10000000)
		(2.14525140 -0.05956665 0.10000000)
		(2.16201117 -0.04435452 0.10000000)
		(2.17877095 -0.02897075 0.10000000)
		(2.19553073 -0.01347487 0.10000000)
		(2.21229050 0.00207316 0.10000000)
		(2.22905028 0.01761317 0.10000000)
		(2.24581006 0.03308501 0.10000000)
		(2.26256983 0.04842882 0.10000000)
		(2.27932961 0.06358522 0.10000000)
		(2.29608939 0.07849555 0.10000000)
		(2.31284916 0.09310211 0.10000000)
		(2.32960894 0.10734838 0.10000000)
		(2.34636872 0.12117923 0.10000000)
		(2.36312849 0.13454112 0.10000000)
		(2.37988827 0.14738236 0.10000000)
		(2.39664804 0.15965325 0.10000000)
		(2.41340782 0.17130630 0.10000000)
		(2.43016760 0.18229642 0.10000000)
		(2.44692737 0.19258107 0.10000000)
		(2.46368715 0.20212046 0.10000000)
		(2.48044693 0.21087767 0.10000000)
		(2.49720670 0.21881880 0.10000000)
		(2.51396648 0.22591314 0.10000000)
		(2.53072626 0.23213322 0.10000000)
		(2.54748603 0.23745498 0.10000000)
		(2.56424581 0.24185781 0.10000000)
		(2.58100559 0.24532468 0.10000000)
		(2.59776536 0.24784218 0.10000000)
		(2.61452514 0.24940056 0.10000000)
		(2.63128492 0.24999380 0.10000000)
		(2.64804469 0.24961958 0.10000000)
		(2.66480447 0.24827938 0.10000000)
		(2.68156425 0.24597836 0.10000000)
		(2.69832402 0.24272543 0.10000000)
		(2.71508380 0.23853319 0.10000000)
		(2.73184358 0.23341786 0.10000000)
		(2.74860335 0.22739923 0.10000000)
		(2.76536313 0.22050059 0.10000000)
		(2.78212291 0.21274864 0.10000000)
		(2.79888268 0.20417339 0.10000000)
		(2.81564246 0.19480800 0.10000000)
		(2.83240223 0.18468874 0.10000000)
		(2.84916201 0.17385475 0.10000000)
		(2.86592179 0.16234797 0.10000000)
		(2.88268156 0.15021292 0.10000000)
		(2.89944134 0.13749657 0.10000000)
		(2.91620112 0.12424812 0.10000000)
		(2.93296089 0.11051884 0.10000000)
		(2.95166480 0.09937740 0.10000000)
		(2.97036872 0.08940874 0.10000000)
		(2.98907263 0.08061286 0.10000000)
		(3.00777654 0.07298977 0.10000000)
		(3.02648045 0.06653946 0.10000000)
		(3.04518436 0.06126194 0.10000000)
		(3.06388827 0.05715719 0.10000000)
		(3.08259218 0.05422523 0.10000000)
		(3.10129609 0.05246606 0.10000000)
		(3.12000000 0.05187967 0.10000000)
		(3.14000000 0.05187967 0.10000000)
		(3.16000000 0.05187967 0.10000000)
		(3.18000000 0.05187967 0.10000000)
		(3.20000000 0.05187967 0.10000000)
		(3.22000000 0.05187967 0.10000000)
		(3.24000000 0.05187967 0.10000000)
		(3.26000000 0.05187967 0.10000000)
		(3.28000000 0.05187967 0.10000000)
		(3.30000000 0.05187967 0.10000000)
		(3.32000000 0.05187967 0.10000000)
		(3.34000000 0.05187967 0.10000000)
		(3.36000000 0.05187967 0.10000000)
		(3.38000000 0.05187967 0.10000000)
		(3.40000000 0.05187967 0.10000000)
		(3.42000000 0.05187967 0.10000000)
		(3.44000000 0.05187967 0.10000000)
		(3.46000000 0.05187967 0.10000000)
		(3.48000000 0.05187967 0.10000000)
		(3.50000000 0.05187967 0.10000000)
		(3.52000000 0.05187967 0.10000000)
		(3.54000000 0.05187967 0.10000000)
		(3.56000000 0.05187967 0.10000000)
		(3.58000000 0.05187967 0.10000000)
		(3.60000000 0.05187967 0.10000000)
		(3.62000000 0.05187967 0.10000000)
		(3.64000000 0.05187967 0.10000000)
		(3.66000000 0.05187967 0.10000000)
		(3.68000000 0.05187967 0.10000000)
		(3.70000000 0.05187967 0.10000000)
		(3.72000000 0.05187967 0.10000000)
		(3.74000000 0.05187967 0.10000000)
		(3.76000000 0.05187967 0.10000000)
		(3.78000000 0.05187967 0.10000000)
		(3.80000000 0.05187967 0.10000000)
		(3.82000000 0.05187967 0.10000000)
		(3.84000000 0.05187967 0.10000000)
		(3.86000000 0.05187967 0.10000000)
		(3.88000000 0.05187967 0.10000000)
		(3.90000000 0.05187967 0.10000000)
		(3.92000000 0.05187967 0.10000000)
		(3.94000000 0.05187967 0.10000000)
		(3.96000000 0.05187967 0.10000000)
		(3.98000000 0.05187967 0.10000000)
		(4.00000000 0.05187967 0.10000000)
	)
	polyLine 3 2
	(
		(-1.00000000 0.26520376 0.00000000)
		(-0.98000000 0.26677661 0.00000000)
		(-0.96000000 0.26834946 0.00000000)
		(-0.94000000 0.26992231 0.00000000)
		(-0.92000000 0.27149515 0.00000000)
		(-0.90000000 0.27306800 0.00000000)
		(-0.88000000 0.27464085 0.00000000)
		(-0.86000000 0.27621370 0.00000000)
		(-0.84000000 0.27778655 0.00000000)
		(-0.82000000 0.27935940 0.00000000)
		(-0.80000000 0.28093224 0.00000000)
		(-0.78000000 0.28250509 0.00000000)
		(-0.76000000 0.28407794 0.00000000)
		(-0.74000000 0.28565079 0.00000000)
		(-0.72000000 0.28722364 0.00000000)
		(-0.70000000 0.28879649 0.00000000)
		(-0.68000000 0.29036934 0.00000000)
		(-0.66000000 0.29194218 0.00000000)
		(-0.64000000 0.29351503 0.00000000)
		(-0.62000000 0.29508788 0.00000000)
		(-0.60000000 0.29666073 0.00000000)
		(-0.58000000 0.29823358 0.00000000)
		(-0.56000000 0.29980643 0.00000000)
		(-0.54000000 0.30137928 0.00000000)
		(-0.52000000 0.30295212 0.00000000)
		(-0.50000000 0.30452497 0.00000000)
		(-0.48000000 0.30609782 0.00000000)
		(-0.46000000 0.30767067 0.00000000)
		(-0.44000000 0.30924352 0.00000000)
		(-0.42000000 0.31081637 0.00000000)
		(-0.40000000 0.31238921 0.00000000)
		(-0.38000000 0.31396206 0.00000000)
		(-0.36000000 0.31553491 0.00000000)
		(-0.34000000 0.31710776 0.00000000)
		(-0.32000000 0.31868061 0.00000000)
		(-0.30000000 0.32025346 0.00000000)
		(-0.28000000 0.32182631 0.00000000)
		(-0.26000000 0.32339915 0.00000000)
		(-0.24000000 0.32497200 0.00000000)
		(-0.22000000 0.32654485 0.00000000)
		(-0.20000000 0.32811770 0.00000000)
		(-0.18000000 0.32969055 0.00000000)
		(-0.16000000 0.33126340 0.00000000)
		(-0.14000000 0.33283625 0.00000000)
		(-0.12000000 0.33440909 0.00000000)
		(-0.10000000 0.33598194 0.00000000)
		(-0.08162011 0.33714864 0.00000000)
		(-0.06324022 0.33797183 0.00000000)
		(-0.04486034 0.33845150 0.00000000)
		(-0.02648045 0.33858766 0.00000000)
		(-0.00810056 0.33838030 0.00000000)
		(0.01027933 0.33782942 0.00000000)
		(0.02865922 0.33693503 0.00000000)
		(0.04703911 0.33569712 0.00000000)
		(0.06541899 0.33411570 0.00000000)
		(0.08379888 0.33219076 0.00000000)
		(0.10055866 0.33210357 0.00000000)
		(0.11731844 0.33266611 0.00000000)
		(0.13407821 0.33387622 0.00000000)
		(0.15083799 0.33572920 0.00000000)
		(0.16759777 0.33821789 0.00000000)
		(0.18435754 0.34133266 0.00000000)
		(0.20111732 0.34506145 0.00000000)
		(0.21787709 0.34938983 0.00000000)
		(0.23463687 0.35430105 0.00000000)
		(0.25139665 0.35977611 0.00000000)
		(0.26815642 0.36579382 0.00000000)
		(0.28491620 0.37233089 0.00000000)
		(0.30167598 0.37936203 0.00000000)
		(0.31843575 0.38686001 0.00000000)
		(0.33519553 0.39479584 0.00000000)
		(0.35195531 0.40313879 0.00000000)
		(0.36871508 0.41185658 0.00000000)
		(0.38547486 0.42091548 0.00000000)
		(0.40223464 0.43028042 0.00000000)
		(0.41899441 0.43991517 0.00000000)
		(0.43575419 0.44978244 0.00000000)
		(0.45251397 0.45984405 0.00000000)
		(0.46927374 0.47006105 0.00000000)
		(0.48603352 0.48039391 0.00000000)
		(0.50279330 0.49080265 0.00000000)
		(0.51955307 0.50124698 0.00000000)
		(0.53631285 0.51168648 0.00000000)
		(0.55307263 0.52208076 0.00000000)
		(0.56983240 0.53238959 0.00000000)
		(0.58659218 0.54257308 0.00000000)
		(0.60335196 0.55259181 0.00000000)
		(0.62011173 0.56240702 0.00000000)
		(0.63687151 0.57198072 0.00000000)
		(0.65363128 0.58127587 0.00000000)
		(0.67039106 0.59025649 0.00000000)
		(0.68715084 0.59888782 0.00000000)
		(0.70391061 0.60713648 0.00000000)
		(0.72067039 0.61497053 0.00000000)
		(0.73743017 0.62235965 0.00000000)
		(0.75418994 0.62927526 0.00000000)
		(0.77094972 0.63569060 0.00000000)
		(0.78770950 0.64158082 0.00000000)
		(0.80446927 0.64692315 0.00000000)
		(0.82122905 0.65169690 0.00000000)
		(0.83798883 0.65588361 0.00000000)
		(0.85474860 0.65946706 0.00000000)
		(0.87150838 0.66243340 0.00000000)
		(0.88826816 0.66477114 0.00000000)
		(0.90502793 0.66647124 0.00000000)
		(0.92178771 0.66752711 0.00000000)
		(0.93854749 0.66793468 0.00000000)
		(0.95530726 0.66769236 0.00000000)
		(0.97206704 0.66680109 0.00000000)
		(0.98882682 0.66526432 0.00000000)
		(1.00558659 0.66308800 0.00000000)
		(1.02234637 0.66028055 0.00000000)
		(1.03910615 0.65685284 0.00000000)
		(1.05586592 0.65281812 0.00000000)
		(1.07262570 0.64819202 0.00000000)
		(1.08938547 0.64299243 0.00000000)
		(1.10614525 0.63723948 0.00000000)
		(1.12290503 0.63095544 0.00000000)
		(1.13966480 0.62416461 0.00000000)
		(1.15642458 0.61689327 0.00000000)
		(1.17318436 0.60916958 0.00000000)
		(1.18994413 0.60102341 0.00000000)
		(1.20670391 0.59248630 0.00000000)
		(1.22346369 0.58359127 0.00000000)
		(1.24022346 0.57437276 0.00000000)
		(1.25698324 0.56486644 0.00000000)
		(1.27374302 0.55510909 0.00000000)
		(1.29050279 0.54513847 0.00000000)
		(1.30726257 0.53499318 0.00000000)
		(1.32402235 0.52471246 0.00000000)
		(1.34078212 0.51433611 0.00000000)
		(1.35754190 0.50390428 0.00000000)
		(1.37430168 0.49345735 0.00000000)
		(1.39106145 0.48303573 0.00000000)
		(1.40782123 0.47267976 0.00000000)
		(1.42458101 0.46242952 0.00000000)
		(1.44134078 0.45232467 0.00000000)
		(1.45810056 0.44240432 0.00000000)
		(1.47486034 0.43270685 0.00000000)
		(1.49162011 0.42326981 0.00000000)
		(1.50837989 0.41412970 0.00000000)
		(1.52513966 0.40532189 0.00000000)
		(1.54189944 0.39688048 0.00000000)
		(1.55865922 0.38883813 0.00000000)
		(1.57541899 0.38122596 0.00000000)
		(1.59217877 0.37407343 0.00000000)
		(1.60893855 0.36740822 0.00000000)
		(1.62569832 0.36125612 0.00000000)
		(1.64245810 0.35564095 0.00000000)
		(1.65921788 0.35058442 0.00000000)
		(1.67597765 0.34610612 0.00000000)
		(1.69273743 0.34222336 0.00000000)
		(1.70949721 0.33895119 0.00000000)
		(1.72625698 0.33630225 0.00000000)
		(1.74301676 0.33428680 0.00000000)
		(1.75977654 0.33291263 0.00000000)
		(1.77653631 0.33218508 0.00000000)
		(1.79329609 0.33210695 0.00000000)
		(1.81005587 0.33267854 0.00000000)
		(1.82681564 0.33389765 0.00000000)
		(1.84357542 0.33575955 0.00000000)
		(1.86033520 0.33825704 0.00000000)
		(1.87709497 0.34138046 0.00000000)
		(1.89385475 0.34511771 0.00000000)
		(1.91061453 0.34945434 0.00000000)
		(1.92737430 0.35437356 0.00000000)
		(1.94413408 0.35985634 0.00000000)
		(1.96089385 0.36588145 0.00000000)
		(1.97765363 0.37242559 0.00000000)
		(1.99441341 0.37946343 0.00000000)
		(2.01117318 0.38696772 0.00000000)
		(2.02793296 0.39490944 0.00000000)
		(2.04469274 0.40325784 0.00000000)
		(2.06145251 0.41198062 0.00000000)
		(2.07821229 0.42104403 0.00000000)
		(2.09497207 0.43041299 0.00000000)
		(2.11173184 0.44005124 0.00000000)
		(2.12849162 0.44992148 0.00000000)
		(2.14525140 0.45998552 0.00000000)
		(2.16201117 0.47020442 0.00000000)
		(2.17877095 0.48053861 0.00000000)
		(2.19553073 0.49094812 0.00000000)
		(2.21229050 0.50139266 0.00000000)
		(2.22905028 0.51183182 0.00000000)
		(2.24581006 0.52222518 0.00000000)
		(2.26256983 0.53253253 0.00000000)
		(2.27932961 0.54271399 0.00000000)
		(2.29608939 0.55273015 0.00000000)
		(2.31284916 0.56254225 0.00000000)
		(2.32960894 0.57211232 0.00000000)
		(2.34636872 0.58140333 0.00000000)
		(2.36312849 0.59037931 0.00000000)
		(2.37988827 0.59900554 0.00000000)
		(2.39664804 0.60724863 0.00000000)
		(2.41340782 0.61507668 0.00000000)
		(2.43016760 0.62245940 0.00000000)
		(2.44692737 0.62936821 0.00000000)
		(2.46368715 0.63577639 0.00000000)
		(2.48044693 0.64165913 0.00000000)
		(2.49720670 0.64699366 0.00000000)
		(2.51396648 0.65175935 0.00000000)
		(2.53072626 0.65593775 0.00000000)