/*--------------------------------*- C++ -*----------------------------------*\\
/*--------------------------------*- C++ -*----------------------------------*\\
| =========                 |                                                 |
| \\\\      /  F ield         | OpenFOAM: The Open Source CFD Toolbox           |
|  \\\\    /   O peration     | Version:  v2012                                 |
|   \\\\  /    A nd           | Website:  www.openfoam.com                      |
|    \\\\/     M anipulation  |                                                 |
\\*---------------------------------------------------------------------------*/
FoamFile
{
    version     2.0;
    format      ascii;
    class       dictionary;
    object      blockMeshDict;
}
// * * * * * * * * * * * * * * * * * * * * * * * * * * * * * * * * * * * * * //

scale   0.01;

xmin -1;
xmax 5;
ymin 0;
ymax 0.5;
zmin 0;
zmax 0.1;

vertices
(
    (-1.00000000 -0.07079726 0.00000000)
    (4.00000000 0.16124463 0.00000000)
    (4.00000000 0.66124463 0.00000000)
    (-1.00000000 0.42920274 0.00000000)
    (-1.00000000 -0.07079726 0.10000000)
    (4.00000000 0.16124463 0.10000000)
    (4.00000000 0.66124463 0.10000000)
    (-1.00000000 0.42920274 0.10000000)
);

blocks
(
    hex (0 1 2 3 4 5 6 7) (200 20 1) simpleGrading (1 1 1)
);

edges
(
	polyLine 0 1
	(
		(-1.00000000 -0.07079726 0.00000000)
		(-0.98000000 -0.07079726 0.00000000)
		(-0.96000000 -0.07079726 0.00000000)
		(-0.94000000 -0.07079726 0.00000000)
		(-0.92000000 -0.07079726 0.00000000)
		(-0.90000000 -0.07079726 0.00000000)
		(-0.88000000 -0.07079726 0.00000000)
		(-0.86000000 -0.07079726 0.00000000)
		(-0.84000000 -0.07079726 0.00000000)
		(-0.82000000 -0.07079726 0.00000000)
		(-0.80000000 -0.07079726 0.00000000)
		(-0.78000000 -0.07079726 0.00000000)
		(-0.76000000 -0.07079726 0.00000000)
		(-0.74000000 -0.07079726 0.00000000)
		(-0.72000000 -0.07079726 0.00000000)
		(-0.70000000 -0.07079726 0.00000000)
		(-0.68000000 -0.07079726 0.00000000)
		(-0.66000000 -0.07079726 0.00000000)
		(-0.64000000 -0.07079726 0.00000000)
		(-0.62000000 -0.07079726 0.00000000)
		(-0.60000000 -0.07079726 0.00000000)
		(-0.58000000 -0.07079726 0.00000000)
		(-0.56000000 -0.07079726 0.00000000)
		(-0.54000000 -0.07079726 0.00000000)
		(-0.52000000 -0.07079726 0.00000000)
		(-0.50000000 -0.07079726 0.00000000)
		(-0.48000000 -0.07079726 0.00000000)
		(-0.46000000 -0.07079726 0.00000000)
		(-0.44000000 -0.07079726 0.00000000)
		(-0.42000000 -0.07079726 0.00000000)
		(-0.40000000 -0.07079726 0.00000000)
		(-0.38000000 -0.07079726 0.00000000)
		(-0.36000000 -0.07079726 0.00000000)
		(-0.34000000 -0.07079726 0.00000000)
		(-0.32000000 -0.07079726 0.00000000)
		(-0.30000000 -0.07079726 0.00000000)
		(-0.28000000 -0.07079726 0.00000000)
		(-0.26000000 -0.07079726 0.00000000)
		(-0.24000000 -0.07079726 0.00000000)
		(-0.22000000 -0.07079726 0.00000000)
		(-0.20000000 -0.07079726 0.00000000)
		(-0.18000000 -0.07079726 0.00000000)
		(-0.16000000 -0.07079726 0.00000000)
		(-0.14000000 -0.07079726 0.00000000)
		(-0.12000000 -0.07079726 0.00000000)
		(-0.10000000 -0.07079726 0.00000000)
		(-0.08162011 -0.06974020 0.00000000)
		(-0.06324022 -0.06656903 0.00000000)
		(-0.04486034 -0.06128375 0.00000000)
		(-0.02648045 -0.05388435 0.00000000)
		(-0.00810056 -0.04437084 0.00000000)
		(0.01027933 -0.03274321 0.00000000)
		(0.02865922 -0.01900148 0.00000000)
		(0.04703911 -0.00314562 0.00000000)
		(0.06541899 0.01482434 0.00000000)
		(0.08379888 0.03490842 0.00000000)
		(0.10055866 0.05590654 0.00000000)
		(0.11731844 0.07649678 0.00000000)
		(0.13407821 0.09652890 0.00000000)
		(0.15083799 0.11585677 0.00000000)
		(0.16759777 0.13433936 0.00000000)
		(0.18435754 0.15184182 0.00000000)
		(0.20111732 0.16823647 0.00000000)
		(0.21787709 0.18340369 0.00000000)
		(0.23463687 0.19723282 0.00000000)
		(0.25139665 0.20962297 0.00000000)
		(0.26815642 0.22048373 0.00000000)
		(0.28491620 0.22973588 0.00000000)
		(0.30167598 0.23731191 0.00000000)
		(0.31843575 0.24315653 0.00000000)
		(0.33519553 0.24722713 0.00000000)
		(0.35195531 0.24949398 0.00000000)
		(0.36871508 0.24994056 0.00000000)
		(0.38547486 0.24856361 0.00000000)
		(0.40223464 0.24537318 0.00000000)
		(0.41899441 0.24039253 0.00000000)
		(0.43575419 0.23365801 0.00000000)
		(0.45251397 0.22521876 0.00000000)
		(0.46927374 0.21513634 0.00000000)
		(0.48603352 0.20348431 0.00000000)
		(0.50279330 0.19034769 0.00000000)
		(0.51955307 0.17582232 0.00000000)
		(0.53631285 0.16001417 0.00000000)
		(0.55307263 0.14303859 0.00000000)
		(0.56983240 0.12501941 0.00000000)
		(0.58659218 0.10608810 0.00000000)
		(0.60335196 0.08638280 0.00000000)
		(0.62011173 0.06604725 0.00000000)
		(0.63687151 0.04522984 0.00000000)
		(0.65363128 0.02408243 0.00000000)
		(0.67039106 0.00275932 0.00000000)
		(0.68715084 -0.01858392 0.00000000)
		(0.70391061 -0.03979158 0.00000000)
		(0.72067039 -0.06070892 0.00000000)
		(0.73743017 -0.08118334 0.00000000)
		(0.75418994 -0.10106545 0.00000000)
		(0.77094972 -0.12021021 0.00000000)
		(0.78770950 -0.13847792 0.00000000)
		(0.80446927 -0.15573532 0.00000000)
		(0.82122905 -0.17185650 0.00000000)
		(0.83798883 -0.18672384 0.00000000)
		(0.85474860 -0.20022886 0.00000000)
		(0.87150838 -0.21227304 0.00000000)
		(0.88826816 -0.22276851 0.00000000)
		(0.90502793 -0.23163869 0.00000000)
		(0.92178771 -0.23881886 0.00000000)
		(0.93854749 -0.24425664 0.00000000)
		(0.95530726 -0.24791236 0.00000000)
		(0.97206704 -0.24975935 0.00000000)
		(0.98882682 -0.24978412 0.00000000)
		(1.00558659 -0.24798650 0.00000000)
		(1.02234637 -0.24437961 0.00000000)
		(1.03910615 -0.23898976 0.00000000)
		(1.05586592 -0.23185627 0.00000000)
		(1.07262570 -0.22303118 0.00000000)
		(1.08938547 -0.21257890 0.00000000)
		(1.10614525 -0.20057566 0.00000000)
		(1.12290503 -0.18710905 0.00000000)
		(1.13966480 -0.17227732 0.00000000)
		(1.15642458 -0.15618868 0.00000000)
		(1.17318436 -0.13896051 0.00000000)
		(1.18994413 -0.12071850 0.00000000)
		(1.20670391 -0.10159574 0.00000000)
		(1.22346369 -0.08173176 0.00000000)
		(1.24022346 -0.06127147 0.00000000)
		(1.25698324 -0.04036415 0.00000000)
		(1.27374302 -0.01916235 0.00000000)
		(1.29050279 0.00217927 0.00000000)
		(1.30726257 0.02350498 0.00000000)
		(1.32402235 0.04465921 0.00000000)
		(1.34078212 0.06548760 0.00000000)
		(1.35754190 0.08583821 0.00000000)
		(1.37430168 0.10556256 0.00000000)
		(1.39106145 0.12451673 0.00000000)
		(1.40782123 0.14256245 0.00000000)
		(1.42458101 0.15956805 0.00000000)
		(1.44134078 0.17540947 0.00000000)
		(1.45810056 0.18997112 0.00000000)
		(1.47486034 0.20314677 0.00000000)
		(1.49162011 0.21484028 0.00000000)
		(1.50837989 0.22496635 0.00000000)
		(1.52513966 0.23345110 0.00000000)
		(1.54189944 0.24023262 0.00000000)
		(1.55865922 0.24526143 0.00000000)
		(1.57541899 0.24850085 0.00000000)
		(1.59217877 0.24992724 0.00000000)
		(1.60893855 0.24953020 0.00000000)
		(1.62569832 0.24731262 0.00000000)
		(1.64245810 0.24329068 0.00000000)
		(1.65921788 0.23749372 0.00000000)
		(1.67597765 0.22996404 0.00000000)
		(1.69273743 0.22075657 0.00000000)
		(1.70949721 0.20993850 0.00000000)
		(1.72625698 0.19758874 0.00000000)
		(1.74301676 0.18379740 0.00000000)
		(1.75977654 0.16866510 0.00000000)
		(1.77653631 0.15230224 0.00000000)
		(1.79329609 0.13482821 0.00000000)
		(1.81005587 0.11637048 0.00000000)
		(1.82681564 0.09706374 0.00000000)
		(1.84357542 0.07704883 0.00000000)
		(1.86033520 0.05647178 0.00000000)
		(1.87709497 0.03548272 0.00000000)
		(1.89385475 0.01423479 0.00000000)
		(1.91061453 -0.00711700 0.00000000)
		(1.92737430 -0.02841687 0.00000000)
		(1.94413408 -0.04950941 0.00000000)
		(1.96089385 -0.07024073 0.00000000)
		(1.97765363 -0.09045959 0.00000000)
		(1.99441341 -0.11001847 0.00000000)
		(2.01117318 -0.12877467 0.00000000)
		(2.02793296 -0.14659135 0.00000000)
		(2.04469274 -0.16333851 0.00000000)
		(2.06145251 -0.17889398 0.00000000)
		(2.07821229 -0.19314427 0.00000000)
		(2.09497207 -0.20598539 0.00000000)
		(2.11173184 -0.21732368 0.00000000)
		(2.12849162 -0.22707641 0.00000000)
		(2.14525140 -0.23517241 0.00000000)
		(2.16201117 -0.24155263 0.00000000)
		(2.17877095 -0.24617051 0.00000000)
		(2.19553073 -0.24899237 0.00000000)
		(2.21229050 -0.24999761 0.00000000)
		(2.22905028 -0.24917890 0.00000000)
		(2.24581006 -0.24654222 0.00000000)
		(2.26256983 -0.24210680 0.00000000)
		(2.27932961 -0.23590500 0.00000000)
		(2.29608939 -0.22798207 0.00000000)
		(2.31284916 -0.21839582 0.00000000)
		(2.32960894 -0.20721617 0.00000000)
		(2.34636872 -0.19452471 0.00000000)
		(2.36312849 -0.18041402 0.00000000)
		(2.37988827 -0.16498706 0.00000000)
		(2.39664804 -0.14835637 0.00000000)
		(2.41340782 -0.13064329 0.00000000)
		(2.43016760 -0.11197706 0.00000000)
		(2.44692737 -0.09249385 0.00000000)
		(2.46368715 -0.07233583 0.00000000)
		(2.48044693 -0.05165005 0.00000000)
		(2.49720670 -0.03058744 0.00000000)
		(2.51396648 -0.00930167 0.00000000)
		(2.53072626 0.01205196 0.00000000)
		(2.54748603 0.03331767 0.00000000)
		(2.56424581 0.05434029 0.00000000)
		(2.58100559 0.07496645 0.00000000)
		(2.59776536 0.09504567 0.00000000)
		(2.61452514 0.11443145 0.00000000)
		(2.63128492 0.13298236 0.00000000)
		(2.64804469 0.15056304 0.00000000)
		(2.66480447 0.16704523 0.00000000)
		(2.68156425 0.18230869 0.00000000)
		(2.69832402 0.19624204 0.00000000)
		(2.71508380 0.20874364 0.00000000)
		(2.73184358 0.21972227 0.00000000)
		(2.74860335 0.22909785 0.00000000)
		(2.76536313 0.23680195 0.00000000)
		(2.78212291 0.24277838 0.00000000)
		(2.79888268 0.24698353 0.00000000)
		(2.81564246 0.24938672 0.00000000)
		(2.83240223 0.24997042 0.00000000)
		(2.84916201 0.24873037 0.00000000)
		(2.86592179 0.24567562 0.00000000)
		(2.88268156 0.24082845 0.00000000)
		(2.89944134 0.23422423 0.00000000)
		(2.91620112 0.22591114 0.00000000)
		(2.93296089 0.21594983 0.00000000)
		(2.95166480 0.20555585 0.00000000)
		(2.97036872 0.19625596 0.00000000)
		(2.98907263 0.18805018 0.00000000)
		(3.00777654 0.18093850 0.00000000)
		(3.02648045 0.17492093 0.00000000)
		(3.04518436 0.16999746 0.00000000)
		(3.06388827 0.16616810 0.00000000)
		(3.08259218 0.16343284 0.00000000)
		(3.10129609 0.16179168 0.00000000)
		(3.12000000 0.16124463 0.00000000)
		(3.14000000 0.16124463 0.00000000)
		(3.16000000 0.16124463 0.00000000)
		(3.18000000 0.16124463 0.00000000)
		(3.20000000 0.16124463 0.00000000)
		(3.22000000 0.16124463 0.00000000)
		(3.24000000 0.16124463 0.00000000)
		(3.26000000 0.16124463 0.00000000)
		(3.28000000 0.16124463 0.00000000)
		(3.30000000 0.16124463 0.00000000)
		(3.32000000 0.16124463 0.00000000)
		(3.34000000 0.16124463 0.00000000)
		(3.36000000 0.16124463 0.00000000)
		(3.38000000 0.16124463 0.00000000)
		(3.40000000 0.16124463 0.00000000)
		(3.42000000 0.16124463 0.00000000)
		(3.44000000 0.16124463 0.00000000)
		(3.46000000 0.16124463 0.00000000)
		(3.48000000 0.16124463 0.00000000)
		(3.50000000 0.16124463 0.00000000)
		(3.52000000 0.16124463 0.00000000)
		(3.54000000 0.16124463 0.00000000)
		(3.56000000 0.16124463 0.00000000)
		(3.58000000 0.16124463 0.00000000)
		(3.60000000 0.16124463 0.00000000)
		(3.62000000 0.16124463 0.00000000)
		(3.64000000 0.16124463 0.00000000)
		(3.66000000 0.16124463 0.00000000)
		(3.68000000 0.16124463 0.00000000)
		(3.70000000 0.16124463 0.00000000)
		(3.72000000 0.16124463 0.00000000)
		(3.74000000 0.16124463 0.00000000)
		(3.76000000 0.16124463 0.00000000)
		(3.78000000 0.16124463 0.00000000)
		(3.80000000 0.16124463 0.00000000)
		(3.82000000 0.16124463 0.00000000)
		(3.84000000 0.16124463 0.00000000)
		(3.86000000 0.16124463 0.00000000)
		(3.88000000 0.16124463 0.00000000)
		(3.90000000 0.16124463 0.00000000)
		(3.92000000 0.16124463 0.00000000)
		(3.94000000 0.16124463 0.00000000)
		(3.96000000 0.16124463 0.00000000)
		(3.98000000 0.16124463 0.00000000)
		(4.00000000 0.16124463 0.00000000)
	)
	polyLine 4 5
	(
		(-1.00000000 -0.07079726 0.10000000)
		(-0.98000000 -0.07079726 0.10000000)
		(-0.96000000 -0.07079726 0.10000000)
		(-0.94000000 -0.07079726 0.10000000)
		(-0.92000000 -0.07079726 0.10000000)
		(-0.90000000 -0.07079726 0.10000000)
		(-0.88000000 -0.07079726 0.10000000)
		(-0.86000000 -0.07079726 0.10000000)
		(-0.84000000 -0.07079726 0.10000000)
		(-0.82000000 -0.07079726 0.10000000)
		(-0.80000000 -0.07079726 0.10000000)
		(-0.78000000 -0.07079726 0.10000000)
		(-0.76000000 -0.07079726 0.10000000)
		(-0.74000000 -0.07079726 0.10000000)
		(-0.72000000 -0.07079726 0.10000000)
		(-0.70000000 -0.07079726 0.10000000)
		(-0.68000000 -0.07079726 0.10000000)
		(-0.66000000 -0.07079726 0.10000000)
		(-0.64000000 -0.07079726 0.10000000)
		(-0.62000000 -0.07079726 0.10000000)
		(-0.60000000 -0.07079726 0.10000000)
		(-0.58000000 -0.07079726 0.10000000)
		(-0.56000000 -0.07079726 0.10000000)
		(-0.54000000 -0.07079726 0.10000000)
		(-0.52000000 -0.07079726 0.10000000)
		(-0.50000000 -0.07079726 0.10000000)
		(-0.48000000 -0.07079726 0.10000000)
		(-0.46000000 -0.07079726 0.10000000)
		(-0.44000000 -0.07079726 0.10000000)
		(-0.42000000 -0.07079726 0.10000000)
		(-0.40000000 -0.07079726 0.10000000)
		(-0.38000000 -0.07079726 0.10000000)
		(-0.36000000 -0.07079726 0.10000000)
		(-0.34000000 -0.07079726 0.10000000)
		(-0.32000000 -0.07079726 0.10000000)
		(-0.30000000 -0.07079726 0.10000000)
		(-0.28000000 -0.07079726 0.10000000)
		(-0.26000000 -0.07079726 0.10000000)
		(-0.24000000 -0.07079726 0.10000000)
		(-0.22000000 -0.07079726 0.10000000)
		(-0.20000000 -0.07079726 0.10000000)
		(-0.18000000 -0.07079726 0.10000000)
		(-0.16000000 -0.07079726 0.10000000)
		(-0.14000000 -0.07079726 0.10000000)
		(-0.12000000 -0.07079726 0.10000000)
		(-0.10000000 -0.07079726 0.10000000)
		(-0.08162011 -0.06974020 0.10000000)
		(-0.06324022 -0.06656903 0.10000000)
		(-0.04486034 -0.06128375 0.10000000)
		(-0.02648045 -0.05388435 0.10000000)
		(-0.00810056 -0.04437084 0.10000000)
		(0.01027933 -0.03274321 0.10000000)
		(0.02865922 -0.01900148 0.10000000)
		(0.04703911 -0.00314562 0.10000000)
		(0.06541899 0.01482434 0.10000000)
		(0.08379888 0.03490842 0.10000000)
		(0.10055866 0.05590654 0.10000000)
		(0.11731844 0.07649678 0.10000000)
		(0.13407821 0.09652890 0.10000000)
		(0.15083799 0.11585677 0.10000000)
		(0.16759777 0.13433936 0.10000000)
		(0.18435754 0.15184182 0.10000000)
		(0.20111732 0.16823647 0.10000000)
		(0.21787709 0.18340369 0.10000000)
		(0.23463687 0.19723282 0.10000000)
		(0.25139665 0.20962297 0.10000000)
		(0.26815642 0.22048373 0.10000000)
		(0.28491620 0.22973588 0.10000000)
		(0.30167598 0.23731191 0.10000000)
		(0.31843575 0.24315653 0.10000000)
		(0.33519553 0.24722713 0.10000000)
		(0.35195531 0.24949398 0.10000000)
		(0.36871508 0.24994056 0.10000000)
		(0.38547486 0.24856361 0.10000000)
		(0.40223464 0.24537318 0.10000000)
		(0.41899441 0.24039253 0.10000000)
		(0.43575419 0.23365801 0.10000000)
		(0.45251397 0.22521876 0.10000000)
		(0.46927374 0.21513634 0.10000000)
		(0.48603352 0.20348431 0.10000000)
		(0.50279330 0.19034769 0.10000000)
		(0.51955307 0.17582232 0.10000000)
		(0.53631285 0.16001417 0.10000000)
		(0.55307263 0.14303859 0.10000000)
		(0.56983240 0.12501941 0.10000000)
		(0.58659218 0.10608810 0.10000000)
		(0.60335196 0.08638280 0.10000000)
		(0.62011173 0.06604725 0.10000000)
		(0.63687151 0.04522984 0.10000000)
		(0.65363128 0.02408243 0.10000000)
		(0.67039106 0.00275932 0.10000000)
		(0.68715084 -0.01858392 0.10000000)
		(0.70391061 -0.03979158 0.10000000)
		(0.72067039 -0.06070892 0.10000000)
		(0.73743017 -0.08118334 0.10000000)
		(0.75418994 -0.10106545 0.10000000)
		(0.77094972 -0.12021021 0.10000000)
		(0.78770950 -0.13847792 0.10000000)
		(0.80446927 -0.15573532 0.10000000)
		(0.82122905 -0.17185650 0.10000000)
		(0.83798883 -0.18672384 0.10000000)
		(0.85474860 -0.20022886 0.10000000)
		(0.87150838 -0.21227304 0.10000000)
		(0.88826816 -0.22276851 0.10000000)
		(0.90502793 -0.23163869 0.10000000)
		(0.92178771 -0.23881886 0.10000000)
		(0.93854749 -0.24425664 0.10000000)
		(0.95530726 -0.24791236 0.10000000)
		(0.97206704 -0.24975935 0.10000000)
		(0.98882682 -0.24978412 0.10000000)
		(1.00558659 -0.24798650 0.10000000)
		(1.02234637 -0.24437961 0.10000000)
		(1.03910615 -0.23898976 0.10000000)
		(1.05586592 -0.23185627 0.10000000)
		(1.07262570 -0.22303118 0.10000000)
		(1.08938547 -0.21257890 0.10000000)
		(1.10614525 -0.20057566 0.10000000)
		(1.12290503 -0.18710905 0.10000000)
		(1.13966480 -0.17227732 0.10000000)
		(1.15642458 -0.15618868 0.10000000)
		(1.17318436 -0.13896051 0.10000000)
		(1.18994413 -0.12071850 0.10000000)
		(1.20670391 -0.10159574 0.10000000)
		(1.22346369 -0.08173176 0.10000000)
		(1.24022346 -0.06127147 0.10000000)
		(1.25698324 -0.04036415 0.10000000)
		(1.27374302 -0.01916235 0.10000000)
		(1.29050279 0.00217927 0.10000000)
		(1.30726257 0.02350498 0.10000000)
		(1.32402235 0.04465921 0.10000000)
		(1.34078212 0.06548760 0.10000000)
		(1.35754190 0.08583821 0.10000000)
		(1.37430168 0.10556256 0.10000000)
		(1.39106145 0.12451673 0.10000000)
		(1.40782123 0.14256245 0.10000000)
		(1.42458101 0.15956805 0.10000000)
		(1.44134078 0.17540947 0.10000000)
		(1.45810056 0.18997112 0.10000000)
		(1.47486034 0.20314677 0.10000000)
		(1.49162011 0.21484028 0.10000000)
		(1.50837989 0.22496635 0.10000000)
		(1.52513966 0.23345110 0.10000000)
		(1.54189944 0.24023262 0.10000000)
		(1.55865922 0.24526143 0.10000000)
		(1.57541899 0.24850085 0.10000000)
		(1.59217877 0.24992724 0.10000000)
		(1.60893855 0.24953020 0.10000000)
		(1.62569832 0.24731262 0.10000000)
		(1.64245810 0.24329068 0.10000000)
		(1.65921788 0.23749372 0.10000000)
		(1.67597765 0.22996404 0.10000000)
		(1.69273743 0.22075657 0.10000000)
		(1.70949721 0.20993850 0.10000000)
		(1.72625698 0.19758874 0.10000000)
		(1.74301676 0.18379740 0.10000000)
		(1.75977654 0.16866510 0.10000000)
		(1.77653631 0.15230224 0.10000000)
		(1.79329609 0.13482821 0.10000000)
		(1.81005587 0.11637048 0.10000000)
		(1.82681564 0.09706374 0.10000000)
		(1.84357542 0.07704883 0.10000000)
		(1.86033520 0.05647178 0.10000000)
		(1.87709497 0.03548272 0.10000000)
		(1.89385475 0.01423479 0.10000000)
		(1.91061453 -0.00711700 0.10000000)
		(1.92737430 -0.02841687 0.10000000)
		(1.94413408 -0.04950941 0.10000000)
		(1.96089385 -0.07024073 0.10000000)
		(1.97765363 -0.09045959 0.10000000)
		(1.99441341 -0.11001847 0.10000000)
		(2.01117318 -0.12877467 0.10000000)
		(2.02793296 -0.14659135 0.10000000)
		(2.04469274 -0.16333851 0.10000000)
		(2.06145251 -0.17889398 0.10000000)
		(2.07821229 -0.19314427 0.10000000)
		(2.09497207 -0.20598539 0.10000000)
		(2.11173184 -0.21732368 0.10000000)
		(2.12849162 -0.22707641 0.10000000)
		(2.14525140 -0.23517241 0.10000000)
		(2.16201117 -0.24155263 0.10000000)
		(2.17877095 -0.24617051 0.10000000)
		(2.19553073 -0.24899237 0.10000000)
		(2.21229050 -0.24999761 0.10000000)
		(2.22905028 -0.24917890 0.10000000)
		(2.24581006 -0.24654222 0.10000000)
		(2.26256983 -0.24210680 0.10000000)
		(2.27932961 -0.23590500 0.10000000)
		(2.29608939 -0.22798207 0.10000000)
		(2.31284916 -0.21839582 0.10000000)
		(2.32960894 -0.20721617 0.10000000)
		(2.34636872 -0.19452471 0.10000000)
		(2.36312849 -0.18041402 0.10000000)
		(2.37988827 -0.16498706 0.10000000)
		(2.39664804 -0.14835637 0.10000000)
		(2.41340782 -0.13064329 0.10000000)
		(2.43016760 -0.11197706 0.10000000)
		(2.44692737 -0.09249385 0.10000000)
		(2.46368715 -0.07233583 0.10000000)
		(2.48044693 -0.05165005 0.10000000)
		(2.49720670 -0.03058744 0.10000000)
		(2.51396648 -0.00930167 0.10000000)
		(2.53072626 0.01205196 0.10000000)
		(2.54748603 0.03331767 0.10000000)
		(2.56424581 0.05434029 0.10000000)
		(2.58100559 0.07496645 0.10000000)
		(2.59776536 0.09504567 0.10000000)
		(2.61452514 0.11443145 0.10000000)
		(2.63128492 0.13298236 0.10000000)
		(2.64804469 0.15056304 0.10000000)
		(2.66480447 0.16704523 0.10000000)
		(2.68156425 0.18230869 0.10000000)
		(2.69832402 0.19624204 0.10000000)
		(2.71508380 0.20874364 0.10000000)
		(2.73184358 0.21972227 0.10000000)
		(2.74860335 0.22909785 0.10000000)
		(2.76536313 0.23680195 0.10000000)
		(2.78212291 0.24277838 0.10000000)
		(2.79888268 0.24698353 0.10000000)
		(2.81564246 0.24938672 0.10000000)
		(2.83240223 0.24997042 0.10000000)
		(2.84916201 0.24873037 0.10000000)
		(2.86592179 0.24567562 0.10000000)
		(2.88268156 0.24082845 0.10000000)
		(2.89944134 0.23422423 0.10000000)
		(2.91620112 0.22591114 0.10000000)
		(2.93296089 0.21594983 0.10000000)
		(2.95166480 0.20555585 0.10000000)
		(2.97036872 0.19625596 0.10000000)
		(2.98907263 0.18805018 0.10000000)
		(3.00777654 0.18093850 0.10000000)
		(3.02648045 0.17492093 0.10000000)
		(3.04518436 0.16999746 0.10000000)
		(3.06388827 0.16616810 0.10000000)
		(3.08259218 0.16343284 0.10000000)
		(3.10129609 0.16179168 0.10000000)
		(3.12000000 0.16124463 0.10000000)
		(3.14000000 0.16124463 0.10000000)
		(3.16000000 0.16124463 0.10000000)
		(3.18000000 0.16124463 0.10000000)
		(3.20000000 0.16124463 0.10000000)
		(3.22000000 0.16124463 0.10000000)
		(3.24000000 0.16124463 0.10000000)
		(3.26000000 0.16124463 0.10000000)
		(3.28000000 0.16124463 0.10000000)
		(3.30000000 0.16124463 0.10000000)
		(3.32000000 0.16124463 0.10000000)
		(3.34000000 0.16124463 0.10000000)
		(3.36000000 0.16124463 0.10000000)
		(3.38000000 0.16124463 0.10000000)
		(3.40000000 0.16124463 0.10000000)
		(3.42000000 0.16124463 0.10000000)
		(3.44000000 0.16124463 0.10000000)
		(3.46000000 0.16124463 0.10000000)
		(3.48000000 0.16124463 0.10000000)
		(3.50000000 0.16124463 0.10000000)
		(3.52000000 0.16124463 0.10000000)
		(3.54000000 0.16124463 0.10000000)
		(3.56000000 0.16124463 0.10000000)
		(3.58000000 0.16124463 0.10000000)
		(3.60000000 0.16124463 0.10000000)
		(3.62000000 0.16124463 0.10000000)
		(3.64000000 0.16124463 0.10000000)
		(3.66000000 0.16124463 0.10000000)
		(3.68000000 0.16124463 0.10000000)
		(3.70000000 0.16124463 0.10000000)
		(3.72000000 0.16124463 0.10000000)
		(3.74000000 0.16124463 0.10000000)
		(3.76000000 0.16124463 0.10000000)
		(3.78000000 0.16124463 0.10000000)
		(3.80000000 0.16124463 0.10000000)
		(3.82000000 0.16124463 0.10000000)
		(3.84000000 0.16124463 0.10000000)
		(3.86000000 0.16124463 0.10000000)
		(3.88000000 0.16124463 0.10000000)
		(3.90000000 0.16124463 0.10000000)
		(3.92000000 0.16124463 0.10000000)
		(3.94000000 0.16124463 0.10000000)
		(3.96000000 0.16124463 0.10000000)
		(3.98000000 0.16124463 0.10000000)
		(4.00000000 0.16124463 0.10000000)
	)
	polyLine 3 2
	(
		(-1.00000000 0.42920274 0.00000000)
		(-0.98000000 0.42938496 0.00000000)
		(-0.96000000 0.42956717 0.00000000)
		(-0.94000000 0.42974938 0.00000000)
		(-0.92000000 0.42993160 0.00000000)
		(-0.90000000 0.43011381 0.00000000)
		(-0.88000000 0.43029602 0.00000000)
		(-0.86000000 0.43047824 0.00000000)
		(-0.84000000 0.43066045 0.00000000)
		(-0.82000000 0.43084266 0.00000000)
		(-0.80000000 0.43102488 0.00000000)
		(-0.78000000 0.43120709 0.00000000)
		(-0.76000000 0.43138930 0.00000000)
		(-0.74000000 0.43157152 0.00000000)
		(-0.72000000 0.43175373 0.00000000)
		(-0.70000000 0.43193594 0.00000000)
		(-0.68000000 0.43211816 0.00000000)
		(-0.66000000 0.43230037 0.00000000)
		(-0.64000000 0.43248258 0.00000000)
		(-0.62000000 0.43266480 0.00000000)
		(-0.60000000 0.43284701 0.00000000)
		(-0.58000000 0.43302922 0.00000000)
		(-0.56000000 0.43321144 0.00000000)
		(-0.54000000 0.43339365 0.00000000)
		(-0.52000000 0.43357586 0.00000000)
		(-0.50000000 0.43375808 0.00000000)
		(-0.48000000 0.43394029 0.00000000)
		(-0.46000000 0.43412250 0.00000000)
		(-0.44000000 0.43430472 0.00000000)
		(-0.42000000 0.43448693 0.00000000)
		(-0.40000000 0.43466914 0.00000000)
		(-0.38000000 0.43485136 0.00000000)
		(-0.36000000 0.43503357 0.00000000)
		(-0.34000000 0.43521579 0.00000000)
		(-0.32000000 0.43539800 0.00000000)
		(-0.30000000 0.43558021 0.00000000)
		(-0.28000000 0.43576243 0.00000000)
		(-0.26000000 0.43594464 0.00000000)
		(-0.24000000 0.43612685 0.00000000)
		(-0.22000000 0.43630907 0.00000000)
		(-0.20000000 0.43649128 0.00000000)
		(-0.18000000 0.43667349 0.00000000)
		(-0.16000000 0.43685571 0.00000000)
		(-0.14000000 0.43703792 0.00000000)
		(-0.12000000 0.43722013 0.00000000)
		(-0.10000000 0.43740235 0.00000000)
		(-0.08162011 0.43691121 0.00000000)
		(-0.06324022 0.43859819 0.00000000)
		(-0.04486034 0.44246328 0.00000000)
		(-0.02648045 0.44850648 0.00000000)
		(-0.00810056 0.45672780 0.00000000)
		(0.01027933 0.46712722 0.00000000)
		(0.02865922 0.47970475 0.00000000)
		(0.04703911 0.49446039 0.00000000)
		(0.06541899 0.51139415 0.00000000)
		(0.08379888 0.53050601 0.00000000)
		(0.10055866 0.54885600 0.00000000)
		(0.11731844 0.56684954 0.00000000)
		(0.13407821 0.58435535 0.00000000)
		(0.15083799 0.60124572 0.00000000)
		(0.16759777 0.61739741 0.00000000)
		(0.18435754 0.63269259 0.00000000)
		(0.20111732 0.64701966 0.00000000)
		(0.21787709 0.66027409 0.00000000)
		(0.23463687 0.67235919 0.00000000)
		(0.25139665 0.68318678 0.00000000)
		(0.26815642 0.69267786 0.00000000)
		(0.28491620 0.70076319 0.00000000)
		(0.30167598 0.70738378 0.00000000)
		(0.31843575 0.71249132 0.00000000)
		(0.33519553 0.71604856 0.00000000)
		(0.35195531 0.71802954 0.00000000)
		(0.36871508 0.71841980 0.00000000)
		(0.38547486 0.71721650 0.00000000)
		(0.40223464 0.71442842 0.00000000)
		(0.41899441 0.71007590 0.00000000)
		(0.43575419 0.70419069 0.00000000)
		(0.45251397 0.69681573 0.00000000)
		(0.46927374 0.68800484 0.00000000)
		(0.48603352 0.67782229 0.00000000)
		(0.50279330 0.66634236 0.00000000)
		(0.51955307 0.65364883 0.00000000)
		(0.53631285 0.63983430 0.00000000)
		(0.55307263 0.62499955 0.00000000)
		(0.56983240 0.60925283 0.00000000)
		(0.58659218 0.59270901 0.00000000)
		(0.60335196 0.57548880 0.00000000)
		(0.62011173 0.55771783 0.00000000)
		(0.63687151 0.53952576 0.00000000)
		(0.65363128 0.52104532 0.00000000)
		(0.67039106 0.50241133 0.00000000)
		(0.68715084 0.48375975 0.00000000)
		(0.70391061 0.46522666 0.00000000)
		(0.72067039 0.44694727 0.00000000)
		(0.73743017 0.42905494 0.00000000)
		(0.75418994 0.41168022 0.00000000)
		(0.77094972 0.39494987 0.00000000)
		(0.78770950 0.37898595 0.00000000)
		(0.80446927 0.36390493 0.00000000)
		(0.82122905 0.34981684 0.00000000)
		(0.83798883 0.33682447 0.00000000)
		(0.85474860 0.32502261 0.00000000)
		(0.87150838 0.31449736 0.00000000)
		(0.88826816 0.30532551 0.00000000)
		(0.90502793 0.29757397 0.00000000)
		(0.92178771 0.29129931 0.00000000)
		(0.93854749 0.28654731 0.00000000)
		(0.95530726 0.28335262 0.00000000)
		(0.97206704 0.28173857 0.00000000)
		(0.98882682 0.28171692 0.00000000)
		(1.00558659 0.28328783 0.00000000)
		(1.02234637 0.28643985 0.00000000)
		(1.03910615 0.29114997 0.00000000)
		(1.05586592 0.29738383 0.00000000)
		(1.07262570 0.30509596 0.00000000)
		(1.08938547 0.31423008 0.00000000)
		(1.10614525 0.32471955 0.00000000)
		(1.12290503 0.33648784 0.00000000)
		(1.13966480 0.34944909 0.00000000)
		(1.15642458 0.36350875 0.00000000)
		(1.17318436 0.37856422 0.00000000)
		(1.18994413 0.39450568 0.00000000)
		(1.20670391 0.41121680 0.00000000)
		(1.22346369 0.42857568 0.00000000)
		(1.24022346 0.44645566 0.00000000)
		(1.25698324 0.46472629 0.00000000)
		(1.27374302 0.48325428 0.00000000)
		(1.29050279 0.50190443 0.00000000)
		(1.30726257 0.52054070 0.00000000)
		(1.32402235 0.53902710 0.00000000)
		(1.34078212 0.55722876 0.00000000)
		(1.35754190 0.57501290 0.00000000)
		(1.37430168 0.59224974 0.00000000)
		(1.39106145 0.60881355 0.00000000)
		(1.40782123 0.62458347 0.00000000)
		(1.42458101 0.63944444 0.00000000)
		(1.44134078 0.65328805 0.00000000)
		(1.45810056 0.66601328 0.00000000)
		(1.47486034 0.67752731 0.00000000)
		(1.49162011 0.68774612 0.00000000)
		(1.50837989 0.69659516 0.00000000)
		(1.52513966 0.70400987 0.00000000)
		(1.54189944 0.70993615 0.00000000)
		(1.55865922 0.71433077 0.00000000)
		(1.57541899 0.71716165 0.00000000)
		(1.59217877 0.71840816 0.00000000)
		(1.60893855 0.71806119 0.00000000)
		(1.62569832 0.71612327 0.00000000)
		(1.64245810 0.71260855 0.00000000)
		(1.65921788 0.70754266 0.00000000)
		(1.67597765 0.70096257 0.00000000)
		(1.69273743 0.69291629 0.00000000)
		(1.70949721 0.68346251 0.00000000)
		(1.72625698 0.67267022 0.00000000)
		(1.74301676 0.66061815 0.00000000)
		(1.75977654 0.64739423 0.00000000)
		(1.77653631 0.63309494 0.00000000)
		(1.79329609 0.61782461 0.00000000)
		(1.81005587 0.60169465 0.00000000)
		(1.82681564 0.58482273 0.00000000)
		(1.84357542 0.56733197 0.00000000)
		(1.86033520 0.54934995 0.00000000)
		(1.87709497 0.53100789 0.00000000)
		(1.89385475 0.51243959 0.00000000)
		(1.91061453 0.49378054 0.00000000)
		(1.92737430 0.47516687 0.00000000)
		(1.94413408 0.45673437 0.00000000)
		(1.96089385 0.43861754 0.00000000)
		(1.97765363 0.42094854 0.00000000)
		(1.99441341 0.40385629 0.00000000)
		(2.01117318 0.38746550 0.00000000)
		(2.02793296 0.37189573 0.00000000)
		(2.04469274 0.35726061 0.00000000)
		(2.06145251 0.34366688 0.00000000)
		(2.07821229 0.33121375 0.00000000)
		(2.09497207 0.31999205 0.00000000)
		(2.11173184 0.31008367 0.00000000)
		(2.12849162 0.30156089 0.00000000)
		(2.14525140 0.29448590 0.00000000)
		(2.16201117 0.28891031 0.00000000)
		(2.17877095 0.28487480 0.00000000)
		(2.19553073 0.28240882 0.00000000)
		(2.21229050 0.28153035 0.00000000)
		(2.22905028 0.28224581 0.00000000)
		(2.24581006 0.28454997 0.00000000)
		(2.26256983 0.28842602 0.00000000)
		(2.27932961 0.29384570 0.00000000)
		(2.29608939 0.30076944 0.00000000)
		(2.31284916 0.30914674 0.00000000)
		(2.32960894 0.31891649 0.00000000)
		(2.34636872 0.33000739 0.00000000)
		(2.36312849 0.34233854 0.00000000)
		(2.37988827 0.35581996 0.00000000)
		(2.39664804 0.37035331 0.00000000)
		(2.41340782 0.38583253 0.00000000)
		(2.43016760 0.40214471 0.00000000)
		(2.44692737 0.41917083 0.00000000)
		(2.46368715 0.43678666 0.00000000)
		(2.48044693 0.45486369 0.00000000)
		(2.49720670 0.47327003 0.00000000)
		(2.51396648 0.49187139 0.00000000)
		(2.53072626 0.51053205 0.00000000)