/*--------------------------------*- C++ -*----------------------------------*\\
/*--------------------------------*- C++ -*----------------------------------*\\
| =========                 |                                                 |
| \\\\      /  F ield         | OpenFOAM: The Open Source CFD Toolbox           |
|  \\\\    /   O peration     | Version:  v2012                                 |
|   \\\\  /    A nd           | Website:  www.openfoam.com                      |
|    \\\\/     M anipulation  |                                                 |
\\*---------------------------------------------------------------------------*/
FoamFile
{
    version     2.0;
    format      ascii;
    class       dictionary;
    object      blockMeshDict;
}
// * * * * * * * * * * * * * * * * * * * * * * * * * * * * * * * * * * * * * //

scale   0.01;

xmin -1;
xmax 5;
ymin 0;
ymax 0.5;
zmin 0;
zmax 0.1;

vertices
(
    (-1.00000000 0.15258434 0.00000000)
    (4.00000000 0.24135290 0.00000000)
    (4.00000000 0.74135290 0.00000000)
    (-1.00000000 0.65258434 0.00000000)
    (-1.00000000 0.15258434 0.10000000)
    (4.00000000 0.24135290 0.10000000)
    (4.00000000 0.74135290 0.10000000)
    (-1.00000000 0.65258434 0.10000000)
);

blocks
(
    hex (0 1 2 3 4 5 6 7) (200 20 1) simpleGrading (1 1 1)
);

edges
(
	polyLine 0 1
	(
		(-1.00000000 0.15258434 0.00000000)
		(-0.98000000 0.15258434 0.00000000)
		(-0.96000000 0.15258434 0.00000000)
		(-0.94000000 0.15258434 0.00000000)
		(-0.92000000 0.15258434 0.00000000)
		(-0.90000000 0.15258434 0.00000000)
		(-0.88000000 0.15258434 0.00000000)
		(-0.86000000 0.15258434 0.00000000)
		(-0.84000000 0.15258434 0.00000000)
		(-0.82000000 0.15258434 0.00000000)
		(-0.80000000 0.15258434 0.00000000)
		(-0.78000000 0.15258434 0.00000000)
		(-0.76000000 0.15258434 0.00000000)
		(-0.74000000 0.15258434 0.00000000)
		(-0.72000000 0.15258434 0.00000000)
		(-0.70000000 0.15258434 0.00000000)
		(-0.68000000 0.15258434 0.00000000)
		(-0.66000000 0.15258434 0.00000000)
		(-0.64000000 0.15258434 0.00000000)
		(-0.62000000 0.15258434 0.00000000)
		(-0.60000000 0.15258434 0.00000000)
		(-0.58000000 0.15258434 0.00000000)
		(-0.56000000 0.15258434 0.00000000)
		(-0.54000000 0.15258434 0.00000000)
		(-0.52000000 0.15258434 0.00000000)
		(-0.50000000 0.15258434 0.00000000)
		(-0.48000000 0.15258434 0.00000000)
		(-0.46000000 0.15258434 0.00000000)
		(-0.44000000 0.15258434 0.00000000)
		(-0.42000000 0.15258434 0.00000000)
		(-0.40000000 0.15258434 0.00000000)
		(-0.38000000 0.15258434 0.00000000)
		(-0.36000000 0.15258434 0.00000000)
		(-0.34000000 0.15258434 0.00000000)
		(-0.32000000 0.15258434 0.00000000)
		(-0.30000000 0.15258434 0.00000000)
		(-0.28000000 0.15258434 0.00000000)
		(-0.26000000 0.15258434 0.00000000)
		(-0.24000000 0.15258434 0.00000000)
		(-0.22000000 0.15258434 0.00000000)
		(-0.20000000 0.15258434 0.00000000)
		(-0.18000000 0.15258434 0.00000000)
		(-0.16000000 0.15258434 0.00000000)
		(-0.14000000 0.15258434 0.00000000)
		(-0.12000000 0.15258434 0.00000000)
		(-0.10000000 0.15258434 0.00000000)
		(-0.08162011 0.15146387 0.00000000)
		(-0.06324022 0.14810247 0.00000000)
		(-0.04486034 0.14250014 0.00000000)
		(-0.02648045 0.13465688 0.00000000)
		(-0.00810056 0.12457268 0.00000000)
		(0.01027933 0.11224756 0.00000000)
		(0.02865922 0.09768150 0.00000000)
		(0.04703911 0.08087450 0.00000000)
		(0.06541899 0.06182658 0.00000000)
		(0.08379888 0.04053772 0.00000000)
		(0.10055866 0.01602568 0.00000000)
		(0.11731844 -0.00864242 0.00000000)
		(0.13407821 -0.03322636 0.00000000)
		(0.15083799 -0.05748673 0.00000000)
		(0.16759777 -0.08118727 0.00000000)
		(0.18435754 -0.10409718 0.00000000)
		(0.20111732 -0.12599335 0.00000000)
		(0.21787709 -0.14666255 0.00000000)
		(0.23463687 -0.16590350 0.00000000)
		(0.25139665 -0.18352881 0.00000000)
		(0.26815642 -0.19936686 0.00000000)
		(0.28491620 -0.21326340 0.00000000)
		(0.30167598 -0.22508309 0.00000000)
		(0.31843575 -0.23471085 0.00000000)
		(0.33519553 -0.24205290 0.00000000)
		(0.35195531 -0.24703775 0.00000000)
		(0.36871508 -0.24961686 0.00000000)
		(0.38547486 -0.24976510 0.00000000)
		(0.40223464 -0.24748104 0.00000000)
		(0.41899441 -0.24278692 0.00000000)
		(0.43575419 -0.23572845 0.00000000)
		(0.45251397 -0.22637436 0.00000000)
		(0.46927374 -0.21481576 0.00000000)
		(0.48603352 -0.20116520 0.00000000)
		(0.50279330 -0.18555562 0.00000000)
		(0.51955307 -0.16813903 0.00000000)
		(0.53631285 -0.14908504 0.00000000)
		(0.55307263 -0.12857920 0.00000000)
		(0.56983240 -0.10682121 0.00000000)
		(0.58659218 -0.08402296 0.00000000)
		(0.60335196 -0.06040646 0.00000000)
		(0.62011173 -0.03620170 0.00000000)
		(0.63687151 -0.01164439 0.00000000)
		(0.65363128 0.01302631 0.00000000)
		(0.67039106 0.03757016 0.00000000)
		(0.68715084 0.06174814 0.00000000)
		(0.70391061 0.08532479 0.00000000)
		(0.72067039 0.10807051 0.00000000)
		(0.73743017 0.12976381 0.00000000)
		(0.75418994 0.15019341 0.00000000)
		(0.77094972 0.16916038 0.00000000)
		(0.78770950 0.18648000 0.00000000)
		(0.80446927 0.20198361 0.00000000)
		(0.82122905 0.21552023 0.00000000)
		(0.83798883 0.22695803 0.00000000)
		(0.85474860 0.23618563 0.00000000)
		(0.87150838 0.24311316 0.00000000)
		(0.88826816 0.24767317 0.00000000)
		(0.90502793 0.24982124 0.00000000)
		(0.92178771 0.24953647 0.00000000)
		(0.93854749 0.24682161 0.00000000)
		(0.95530726 0.24170311 0.00000000)
		(0.97206704 0.23423082 0.00000000)
		(0.98882682 0.22447750 0.00000000)
		(1.00558659 0.21253813 0.00000000)
		(1.02234637 0.19852899 0.00000000)
		(1.03910615 0.18258650 0.00000000)
		(1.05586592 0.16486592 0.00000000)
		(1.07262570 0.14553981 0.00000000)
		(1.08938547 0.12479638 0.00000000)
		(1.10614525 0.10283763 0.00000000)
		(1.12290503 0.07987741 0.00000000)
		(1.13966480 0.05613932 0.00000000)
		(1.15642458 0.03185452 0.00000000)
		(1.17318436 0.00725951 0.00000000)
		(1.18994413 -0.01740619 0.00000000)
		(1.20670391 -0.04190239 0.00000000)
		(1.22346369 -0.06599053 0.00000000)
		(1.24022346 -0.08943602 0.00000000)
		(1.25698324 -0.11201056 0.00000000)
		(1.27374302 -0.13349429 0.00000000)
		(1.29050279 -0.15367801 0.00000000)
		(1.30726257 -0.17236515 0.00000000)
		(1.32402235 -0.18937374 0.00000000)
		(1.34078212 -0.20453813 0.00000000)
		(1.35754190 -0.21771066 0.00000000)
		(1.37430168 -0.22876304 0.00000000)
		(1.39106145 -0.23758764 0.00000000)
		(1.40782123 -0.24409852 0.00000000)
		(1.42458101 -0.24823228 0.00000000)
		(1.44134078 -0.24994866 0.00000000)
		(1.45810056 -0.24923095 0.00000000)
		(1.47486034 -0.24608614 0.00000000)
		(1.49162011 -0.24054484 0.00000000)
		(1.50837989 -0.23266103 0.00000000)
		(1.52513966 -0.22251148 0.00000000)
		(1.54189944 -0.21019503 0.00000000)
		(1.55865922 -0.19583163 0.00000000)
		(1.57541899 -0.17956114 0.00000000)
		(1.59217877 -0.16154202 0.00000000)
		(1.60893855 -0.14194974 0.00000000)
		(1.62569832 -0.12097510 0.00000000)
		(1.64245810 -0.09882237 0.00000000)
		(1.65921788 -0.07570726 0.00000000)
		(1.67597765 -0.05185489 0.00000000)
		(1.69273743 -0.02749753 0.00000000)
		(1.70949721 -0.00287240 0.00000000)
		(1.72625698 0.02178071 0.00000000)
		(1.74301676 0.04622171 0.00000000)
		(1.75977654 0.07021258 0.00000000)
		(1.77653631 0.09351970 0.00000000)
		(1.79329609 0.11591609 0.00000000)
		(1.81005587 0.13718365 0.00000000)
		(1.82681564 0.15711526 0.00000000)
		(1.84357542 0.17551682 0.00000000)
		(1.86033520 0.19220913 0.00000000)
		(1.87709497 0.20702964 0.00000000)
		(1.89385475 0.21983402 0.00000000)
		(1.91061453 0.23049758 0.00000000)
		(1.92737430 0.23891646 0.00000000)
		(1.94413408 0.24500868 0.00000000)
		(1.96089385 0.24871492 0.00000000)
		(1.97765363 0.24999908 0.00000000)
		(1.99441341 0.24884865 0.00000000)
		(2.01117318 0.24527485 0.00000000)
		(2.02793296 0.23931247 0.00000000)
		(2.04469274 0.23101957 0.00000000)
		(2.06145251 0.22047692 0.00000000)
		(2.07821229 0.20778718 0.00000000)
		(2.09497207 0.19307393 0.00000000)
		(2.11173184 0.17648046 0.00000000)
		(2.12849162 0.15816835 0.00000000)
		(2.14525140 0.13831594 0.00000000)
		(2.16201117 0.11711656 0.00000000)
		(2.17877095 0.09477666 0.00000000)
		(2.19553073 0.07151378 0.00000000)
		(2.21229050 0.04755448 0.00000000)
		(2.22905028 0.02313207 0.00000000)
		(2.24581006 -0.00151560 0.00000000)
		(2.26256983 -0.02614852 0.00000000)
		(2.27932961 -0.05052679 0.00000000)
		(2.29608939 -0.07441301 0.00000000)
		(2.31284916 -0.09757457 0.00000000)
		(2.32960894 -0.11978592 0.00000000)
		(2.34636872 -0.14083074 0.00000000)
		(2.36312849 -0.16050410 0.00000000)
		(2.37988827 -0.17861442 0.00000000)
		(2.39664804 -0.19498532 0.00000000)
		(2.41340782 -0.20945738 0.00000000)
		(2.43016760 -0.22188966 0.00000000)
		(2.44692737 -0.23216110 0.00000000)
		(2.46368715 -0.24017167 0.00000000)
		(2.48044693 -0.24584336 0.00000000)
		(2.49720670 -0.24912094 0.00000000)
		(2.51396648 -0.24997248 0.00000000)
		(2.53072626 -0.24838969 0.00000000)
		(2.54748603 -0.24438800 0.00000000)
		(2.56424581 -0.23800636 0.00000000)
		(2.58100559 -0.22930693 0.00000000)
		(2.59776536 -0.21837443 0.00000000)
		(2.61452514 -0.20531531 0.00000000)
		(2.63128492 -0.19025675 0.00000000)
		(2.64804469 -0.17334541 0.00000000)
		(2.66480447 -0.15474596 0.00000000)
		(2.68156425 -0.13463953 0.00000000)
		(2.69832402 -0.11322194 0.00000000)
		(2.71508380 -0.09070175 0.00000000)
		(2.73184358 -0.06729827 0.00000000)
		(2.74860335 -0.04323942 0.00000000)
		(2.76536313 -0.01875949 0.00000000)
		(2.78212291 0.00590314 0.00000000)
		(2.79888268 0.03050827 0.00000000)
		(2.81564246 0.05481630 0.00000000)
		(2.83240223 0.07859052 0.00000000)
		(2.84916201 0.10159938 0.00000000)
		(2.86592179 0.12361884 0.00000000)
		(2.88268156 0.14443445 0.00000000)
		(2.89944134 0.16384350 0.00000000)
		(2.91620112 0.18165699 0.00000000)
		(2.93296089 0.19770143 0.00000000)
		(2.95166480 0.20599521 0.00000000)
		(2.97036872 0.21341596 0.00000000)
		(2.98907263 0.21996368 0.00000000)
		(3.00777654 0.22563837 0.00000000)
		(3.02648045 0.23044003 0.00000000)
		(3.04518436 0.23436866 0.00000000)
		(3.06388827 0.23742426 0.00000000)
		(3.08259218 0.23960684 0.00000000)
		(3.10129609 0.24091638 0.00000000)
		(3.12000000 0.24135290 0.00000000)
		(3.14000000 0.24135290 0.00000000)
		(3.16000000 0.24135290 0.00000000)
		(3.18000000 0.24135290 0.00000000)
		(3.20000000 0.24135290 0.00000000)
		(3.22000000 0.24135290 0.00000000)
		(3.24000000 0.24135290 0.00000000)
		(3.26000000 0.24135290 0.00000000)
		(3.28000000 0.24135290 0.00000000)
		(3.30000000 0.24135290 0.00000000)
		(3.32000000 0.24135290 0.00000000)
		(3.34000000 0.24135290 0.00000000)
		(3.36000000 0.24135290 0.00000000)
		(3.38000000 0.24135290 0.00000000)
		(3.40000000 0.24135290 0.00000000)
		(3.42000000 0.24135290 0.00000000)
		(3.44000000 0.24135290 0.00000000)
		(3.46000000 0.24135290 0.00000000)
		(3.48000000 0.24135290 0.00000000)
		(3.50000000 0.24135290 0.00000000)
		(3.52000000 0.24135290 0.00000000)
		(3.54000000 0.24135290 0.00000000)
		(3.56000000 0.24135290 0.00000000)
		(3.58000000 0.24135290 0.00000000)
		(3.60000000 0.24135290 0.00000000)
		(3.62000000 0.24135290 0.00000000)
		(3.64000000 0.24135290 0.00000000)
		(3.66000000 0.24135290 0.00000000)
		(3.68000000 0.24135290 0.00000000)
		(3.70000000 0.24135290 0.00000000)
		(3.72000000 0.24135290 0.00000000)
		(3.74000000 0.24135290 0.00000000)
		(3.76000000 0.24135290 0.00000000)
		(3.78000000 0.24135290 0.00000000)
		(3.80000000 0.24135290 0.00000000)
		(3.82000000 0.24135290 0.00000000)
		(3.84000000 0.24135290 0.00000000)
		(3.86000000 0.24135290 0.00000000)
		(3.88000000 0.24135290 0.00000000)
		(3.90000000 0.24135290 0.00000000)
		(3.92000000 0.24135290 0.00000000)
		(3.94000000 0.24135290 0.00000000)
		(3.96000000 0.24135290 0.00000000)
		(3.98000000 0.24135290 0.00000000)
		(4.00000000 0.24135290 0.00000000)
	)
	polyLine 4 5
	(
		(-1.00000000 0.15258434 0.10000000)
		(-0.98000000 0.15258434 0.10000000)
		(-0.96000000 0.15258434 0.10000000)
		(-0.94000000 0.15258434 0.10000000)
		(-0.92000000 0.15258434 0.10000000)
		(-0.90000000 0.15258434 0.10000000)
		(-0.88000000 0.15258434 0.10000000)
		(-0.86000000 0.15258434 0.10000000)
		(-0.84000000 0.15258434 0.10000000)
		(-0.82000000 0.15258434 0.10000000)
		(-0.80000000 0.15258434 0.10000000)
		(-0.78000000 0.15258434 0.10000000)
		(-0.76000000 0.15258434 0.10000000)
		(-0.74000000 0.15258434 0.10000000)
		(-0.72000000 0.15258434 0.10000000)
		(-0.70000000 0.15258434 0.10000000)
		(-0.68000000 0.15258434 0.10000000)
		(-0.66000000 0.15258434 0.10000000)
		(-0.64000000 0.15258434 0.10000000)
		(-0.62000000 0.15258434 0.10000000)
		(-0.60000000 0.15258434 0.10000000)
		(-0.58000000 0.15258434 0.10000000)
		(-0.56000000 0.15258434 0.10000000)
		(-0.54000000 0.15258434 0.10000000)
		(-0.52000000 0.15258434 0.10000000)
		(-0.50000000 0.15258434 0.10000000)
		(-0.48000000 0.15258434 0.10000000)
		(-0.46000000 0.15258434 0.10000000)
		(-0.44000000 0.15258434 0.10000000)
		(-0.42000000 0.15258434 0.10000000)
		(-0.40000000 0.15258434 0.10000000)
		(-0.38000000 0.15258434 0.10000000)
		(-0.36000000 0.15258434 0.10000000)
		(-0.34000000 0.15258434 0.10000000)
		(-0.32000000 0.15258434 0.10000000)
		(-0.30000000 0.15258434 0.10000000)
		(-0.28000000 0.15258434 0.10000000)
		(-0.26000000 0.15258434 0.10000000)
		(-0.24000000 0.15258434 0.10000000)
		(-0.22000000 0.15258434 0.10000000)
		(-0.20000000 0.15258434 0.10000000)
		(-0.18000000 0.15258434 0.10000000)
		(-0.16000000 0.15258434 0.10000000)
		(-0.14000000 0.15258434 0.10000000)
		(-0.12000000 0.15258434 0.10000000)
		(-0.10000000 0.15258434 0.10000000)
		(-0.08162011 0.15146387 0.10000000)
		(-0.06324022 0.14810247 0.10000000)
		(-0.04486034 0.14250014 0.10000000)
		(-0.02648045 0.13465688 0.10000000)
		(-0.00810056 0.12457268 0.10000000)
		(0.01027933 0.11224756 0.10000000)
		(0.02865922 0.09768150 0.10000000)
		(0.04703911 0.08087450 0.10000000)
		(0.06541899 0.06182658 0.10000000)
		(0.08379888 0.04053772 0.10000000)
		(0.10055866 0.01602568 0.10000000)
		(0.11731844 -0.00864242 0.10000000)
		(0.13407821 -0.03322636 0.10000000)
		(0.15083799 -0.05748673 0.10000000)
		(0.16759777 -0.08118727 0.10000000)
		(0.18435754 -0.10409718 0.10000000)
		(0.20111732 -0.12599335 0.10000000)
		(0.21787709 -0.14666255 0.10000000)
		(0.23463687 -0.16590350 0.10000000)
		(0.25139665 -0.18352881 0.10000000)
		(0.26815642 -0.19936686 0.10000000)
		(0.28491620 -0.21326340 0.10000000)
		(0.30167598 -0.22508309 0.10000000)
		(0.31843575 -0.23471085 0.10000000)
		(0.33519553 -0.24205290 0.10000000)
		(0.35195531 -0.24703775 0.10000000)
		(0.36871508 -0.24961686 0.10000000)
		(0.38547486 -0.24976510 0.10000000)
		(0.40223464 -0.24748104 0.10000000)
		(0.41899441 -0.24278692 0.10000000)
		(0.43575419 -0.23572845 0.10000000)
		(0.45251397 -0.22637436 0.10000000)
		(0.46927374 -0.21481576 0.10000000)
		(0.48603352 -0.20116520 0.10000000)
		(0.50279330 -0.18555562 0.10000000)
		(0.51955307 -0.16813903 0.10000000)
		(0.53631285 -0.14908504 0.10000000)
		(0.55307263 -0.12857920 0.10000000)
		(0.56983240 -0.10682121 0.10000000)
		(0.58659218 -0.08402296 0.10000000)
		(0.60335196 -0.06040646 0.10000000)
		(0.62011173 -0.03620170 0.10000000)
		(0.63687151 -0.01164439 0.10000000)
		(0.65363128 0.01302631 0.10000000)
		(0.67039106 0.03757016 0.10000000)
		(0.68715084 0.06174814 0.10000000)
		(0.70391061 0.08532479 0.10000000)
		(0.72067039 0.10807051 0.10000000)
		(0.73743017 0.12976381 0.10000000)
		(0.75418994 0.15019341 0.10000000)
		(0.77094972 0.16916038 0.10000000)
		(0.78770950 0.18648000 0.10000000)
		(0.80446927 0.20198361 0.10000000)
		(0.82122905 0.21552023 0.10000000)
		(0.83798883 0.22695803 0.10000000)
		(0.85474860 0.23618563 0.10000000)
		(0.87150838 0.24311316 0.10000000)
		(0.88826816 0.24767317 0.10000000)
		(0.90502793 0.24982124 0.10000000)
		(0.92178771 0.24953647 0.10000000)
		(0.93854749 0.24682161 0.10000000)
		(0.95530726 0.24170311 0.10000000)
		(0.97206704 0.23423082 0.10000000)
		(0.98882682 0.22447750 0.10000000)
		(1.00558659 0.21253813 0.10000000)
		(1.02234637 0.19852899 0.10000000)
		(1.03910615 0.18258650 0.10000000)
		(1.05586592 0.16486592 0.10000000)
		(1.07262570 0.14553981 0.10000000)
		(1.08938547 0.12479638 0.10000000)
		(1.10614525 0.10283763 0.10000000)
		(1.12290503 0.07987741 0.10000000)
		(1.13966480 0.05613932 0.10000000)
		(1.15642458 0.03185452 0.10000000)
		(1.17318436 0.00725951 0.10000000)
		(1.18994413 -0.01740619 0.10000000)
		(1.20670391 -0.04190239 0.10000000)
		(1.22346369 -0.06599053 0.10000000)
		(1.24022346 -0.08943602 0.10000000)
		(1.25698324 -0.11201056 0.10000000)
		(1.27374302 -0.13349429 0.10000000)
		(1.29050279 -0.15367801 0.10000000)
		(1.30726257 -0.17236515 0.10000000)
		(1.32402235 -0.18937374 0.10000000)
		(1.34078212 -0.20453813 0.10000000)
		(1.35754190 -0.21771066 0.10000000)
		(1.37430168 -0.22876304 0.10000000)
		(1.39106145 -0.23758764 0.10000000)
		(1.40782123 -0.24409852 0.10000000)
		(1.42458101 -0.24823228 0.10000000)
		(1.44134078 -0.24994866 0.10000000)
		(1.45810056 -0.24923095 0.10000000)
		(1.47486034 -0.24608614 0.10000000)
		(1.49162011 -0.24054484 0.10000000)
		(1.50837989 -0.23266103 0.10000000)
		(1.52513966 -0.22251148 0.10000000)
		(1.54189944 -0.21019503 0.10000000)
		(1.55865922 -0.19583163 0.10000000)
		(1.57541899 -0.17956114 0.10000000)
		(1.59217877 -0.16154202 0.10000000)
		(1.60893855 -0.14194974 0.10000000)
		(1.62569832 -0.12097510 0.10000000)
		(1.64245810 -0.09882237 0.10000000)
		(1.65921788 -0.07570726 0.10000000)
		(1.67597765 -0.05185489 0.10000000)
		(1.69273743 -0.02749753 0.10000000)
		(1.70949721 -0.00287240 0.10000000)
		(1.72625698 0.02178071 0.10000000)
		(1.74301676 0.04622171 0.10000000)
		(1.75977654 0.07021258 0.10000000)
		(1.77653631 0.09351970 0.10000000)
		(1.79329609 0.11591609 0.10000000)
		(1.81005587 0.13718365 0.10000000)
		(1.82681564 0.15711526 0.10000000)
		(1.84357542 0.17551682 0.10000000)
		(1.86033520 0.19220913 0.10000000)
		(1.87709497 0.20702964 0.10000000)
		(1.89385475 0.21983402 0.10000000)
		(1.91061453 0.23049758 0.10000000)
		(1.92737430 0.23891646 0.10000000)
		(1.94413408 0.24500868 0.10000000)
		(1.96089385 0.24871492 0.10000000)
		(1.97765363 0.24999908 0.10000000)
		(1.99441341 0.24884865 0.10000000)
		(2.01117318 0.24527485 0.10000000)
		(2.02793296 0.23931247 0.10000000)
		(2.04469274 0.23101957 0.10000000)
		(2.06145251 0.22047692 0.10000000)
		(2.07821229 0.20778718 0.10000000)
		(2.09497207 0.19307393 0.10000000)
		(2.11173184 0.17648046 0.10000000)
		(2.12849162 0.15816835 0.10000000)
		(2.14525140 0.13831594 0.10000000)
		(2.16201117 0.11711656 0.10000000)
		(2.17877095 0.09477666 0.10000000)
		(2.19553073 0.07151378 0.10000000)
		(2.21229050 0.04755448 0.10000000)
		(2.22905028 0.02313207 0.10000000)
		(2.24581006 -0.00151560 0.10000000)
		(2.26256983 -0.02614852 0.10000000)
		(2.27932961 -0.05052679 0.10000000)
		(2.29608939 -0.07441301 0.10000000)
		(2.31284916 -0.09757457 0.10000000)
		(2.32960894 -0.11978592 0.10000000)
		(2.34636872 -0.14083074 0.10000000)
		(2.36312849 -0.16050410 0.10000000)
		(2.37988827 -0.17861442 0.10000000)
		(2.39664804 -0.19498532 0.10000000)
		(2.41340782 -0.20945738 0.10000000)
		(2.43016760 -0.22188966 0.10000000)
		(2.44692737 -0.23216110 0.10000000)
		(2.46368715 -0.24017167 0.10000000)
		(2.48044693 -0.24584336 0.10000000)
		(2.49720670 -0.24912094 0.10000000)
		(2.51396648 -0.24997248 0.10000000)
		(2.53072626 -0.24838969 0.10000000)
		(2.54748603 -0.24438800 0.10000000)
		(2.56424581 -0.23800636 0.10000000)
		(2.58100559 -0.22930693 0.10000000)
		(2.59776536 -0.21837443 0.10000000)
		(2.61452514 -0.20531531 0.10000000)
		(2.63128492 -0.19025675 0.10000000)
		(2.64804469 -0.17334541 0.10000000)
		(2.66480447 -0.15474596 0.10000000)
		(2.68156425 -0.13463953 0.10000000)
		(2.69832402 -0.11322194 0.10000000)
		(2.71508380 -0.09070175 0.10000000)
		(2.73184358 -0.06729827 0.10000000)
		(2.74860335 -0.04323942 0.10000000)
		(2.76536313 -0.01875949 0.10000000)
		(2.78212291 0.00590314 0.10000000)
		(2.79888268 0.03050827 0.10000000)
		(2.81564246 0.05481630 0.10000000)
		(2.83240223 0.07859052 0.10000000)
		(2.84916201 0.10159938 0.10000000)
		(2.86592179 0.12361884 0.10000000)
		(2.88268156 0.14443445 0.10000000)
		(2.89944134 0.16384350 0.10000000)
		(2.91620112 0.18165699 0.10000000)
		(2.93296089 0.19770143 0.10000000)
		(2.95166480 0.20599521 0.10000000)
		(2.97036872 0.21341596 0.10000000)
		(2.98907263 0.21996368 0.10000000)
		(3.00777654 0.22563837 0.10000000)
		(3.02648045 0.23044003 0.10000000)
		(3.04518436 0.23436866 0.10000000)
		(3.06388827 0.23742426 0.10000000)
		(3.08259218 0.23960684 0.10000000)
		(3.10129609 0.24091638 0.10000000)
		(3.12000000 0.24135290 0.10000000)
		(3.14000000 0.24135290 0.10000000)
		(3.16000000 0.24135290 0.10000000)
		(3.18000000 0.24135290 0.10000000)
		(3.20000000 0.24135290 0.10000000)
		(3.22000000 0.24135290 0.10000000)
		(3.24000000 0.24135290 0.10000000)
		(3.26000000 0.24135290 0.10000000)
		(3.28000000 0.24135290 0.10000000)
		(3.30000000 0.24135290 0.10000000)
		(3.32000000 0.24135290 0.10000000)
		(3.34000000 0.24135290 0.10000000)
		(3.36000000 0.24135290 0.10000000)
		(3.38000000 0.24135290 0.10000000)
		(3.40000000 0.24135290 0.10000000)
		(3.42000000 0.24135290 0.10000000)
		(3.44000000 0.24135290 0.10000000)
		(3.46000000 0.24135290 0.10000000)
		(3.48000000 0.24135290 0.10000000)
		(3.50000000 0.24135290 0.10000000)
		(3.52000000 0.24135290 0.10000000)
		(3.54000000 0.24135290 0.10000000)
		(3.56000000 0.24135290 0.10000000)
		(3.58000000 0.24135290 0.10000000)
		(3.60000000 0.24135290 0.10000000)
		(3.62000000 0.24135290 0.10000000)
		(3.64000000 0.24135290 0.10000000)
		(3.66000000 0.24135290 0.10000000)
		(3.68000000 0.24135290 0.10000000)
		(3.70000000 0.24135290 0.10000000)
		(3.72000000 0.24135290 0.10000000)
		(3.74000000 0.24135290 0.10000000)
		(3.76000000 0.24135290 0.10000000)
		(3.78000000 0.24135290 0.10000000)
		(3.80000000 0.24135290 0.10000000)
		(3.82000000 0.24135290 0.10000000)
		(3.84000000 0.24135290 0.10000000)
		(3.86000000 0.24135290 0.10000000)
		(3.88000000 0.24135290 0.10000000)
		(3.90000000 0.24135290 0.10000000)
		(3.92000000 0.24135290 0.10000000)
		(3.94000000 0.24135290 0.10000000)
		(3.96000000 0.24135290 0.10000000)
		(3.98000000 0.24135290 0.10000000)
		(4.00000000 0.24135290 0.10000000)
	)
	polyLine 3 2
	(
		(-1.00000000 0.65258434 0.00000000)
		(-0.98000000 0.65331513 0.00000000)
		(-0.96000000 0.65404592 0.00000000)
		(-0.94000000 0.65477670 0.00000000)
		(-0.92000000 0.65550749 0.00000000)
		(-0.90000000 0.65623828 0.00000000)
		(-0.88000000 0.65696907 0.00000000)
		(-0.86000000 0.65769986 0.00000000)
		(-0.84000000 0.65843065 0.00000000)
		(-0.82000000 0.65916144 0.00000000)
		(-0.80000000 0.65989222 0.00000000)
		(-0.78000000 0.66062301 0.00000000)
		(-0.76000000 0.66135380 0.00000000)
		(-0.74000000 0.66208459 0.00000000)
		(-0.72000000 0.66281538 0.00000000)
		(-0.70000000 0.66354617 0.00000000)
		(-0.68000000 0.66427696 0.00000000)
		(-0.66000000 0.66500774 0.00000000)
		(-0.64000000 0.66573853 0.00000000)
		(-0.62000000 0.66646932 0.00000000)
		(-0.60000000 0.66720011 0.00000000)
		(-0.58000000 0.66793090 0.00000000)
		(-0.56000000 0.66866169 0.00000000)
		(-0.54000000 0.66939248 0.00000000)
		(-0.52000000 0.67012327 0.00000000)
		(-0.50000000 0.67085405 0.00000000)
		(-0.48000000 0.67158484 0.00000000)
		(-0.46000000 0.67231563 0.00000000)
		(-0.44000000 0.67304642 0.00000000)
		(-0.42000000 0.67377721 0.00000000)
		(-0.40000000 0.67450800 0.00000000)
		(-0.38000000 0.67523879 0.00000000)
		(-0.36000000 0.67596957 0.00000000)
		(-0.34000000 0.67670036 0.00000000)
		(-0.32000000 0.67743115 0.00000000)
		(-0.30000000 0.67816194 0.00000000)
		(-0.28000000 0.67889273 0.00000000)
		(-0.26000000 0.67962352 0.00000000)
		(-0.24000000 0.68035431 0.00000000)
		(-0.22000000 0.68108509 0.00000000)
		(-0.20000000 0.68181588 0.00000000)
		(-0.18000000 0.68254667 0.00000000)
		(-0.16000000 0.68327746 0.00000000)
		(-0.14000000 0.68400825 0.00000000)
		(-0.12000000 0.68473904 0.00000000)
		(-0.10000000 0.68546983 0.00000000)
		(-0.08162011 0.68690678 0.00000000)
		(-0.06324022 0.68501510 0.00000000)
		(-0.04486034 0.67979480 0.00000000)
		(-0.02648045 0.67124587 0.00000000)
		(-0.00810056 0.65936832 0.00000000)
		(0.01027933 0.64416214 0.00000000)
		(0.02865922 0.62562733 0.00000000)
		(0.04703911 0.60376390 0.00000000)
		(0.06541899 0.57857184 0.00000000)
		(0.08379888 0.55005115 0.00000000)
		(0.10055866 0.51978661 0.00000000)
		(0.11731844 0.48932937 0.00000000)
		(0.13407821 0.45897605 0.00000000)
		(0.15083799 0.42902223 0.00000000)
		(0.16759777 0.39975963 0.00000000)
		(0.18435754 0.37147320 0.00000000)
		(0.20111732 0.34443841 0.00000000)
		(0.21787709 0.31891854 0.00000000)
		(0.23463687 0.29516211 0.00000000)
		(0.25139665 0.27340046 0.00000000)
		(0.26815642 0.25384553 0.00000000)
		(0.28491620 0.23668774 0.00000000)
		(0.30167598 0.22209418 0.00000000)
		(0.31843575 0.21020698 0.00000000)
		(0.33519553 0.20114188 0.00000000)
		(0.35195531 0.19498718 0.00000000)
		(0.36871508 0.19180281 0.00000000)
		(0.38547486 0.19161977 0.00000000)
		(0.40223464 0.19443986 0.00000000)
		(0.41899441 0.20023561 0.00000000)
		(0.43575419 0.20895057 0.00000000)
		(0.45251397 0.22049988 0.00000000)
		(0.46927374 0.23477107 0.00000000)
		(0.48603352 0.25162515 0.00000000)
		(0.50279330 0.27089801 0.00000000)
		(0.51955307 0.29240194 0.00000000)
		(0.53631285 0.31592754 0.00000000)
		(0.55307263 0.34124570 0.00000000)
		(0.56983240 0.36810988 0.00000000)
		(0.58659218 0.39625845 0.00000000)
		(0.60335196 0.42541729 0.00000000)
		(0.62011173 0.45530245 0.00000000)
		(0.63687151 0.48562289 0.00000000)
		(0.65363128 0.51608334 0.00000000)
		(0.67039106 0.54638716 0.00000000)
		(0.68715084 0.57623925 0.00000000)
		(0.70391061 0.60534889 0.00000000)
		(0.72067039 0.63343261 0.00000000)
		(0.73743017 0.66021691 0.00000000)
		(0.75418994 0.68544095 0.00000000)
		(0.77094972 0.70885911 0.00000000)
		(0.78770950 0.73024331 0.00000000)
		(0.80446927 0.74938532 0.00000000)
		(0.82122905 0.76609873 0.00000000)
		(0.83798883 0.78022076 0.00000000)
		(0.85474860 0.79161390 0.00000000)
		(0.87150838 0.80016720 0.00000000)
		(0.88826816 0.80579735 0.00000000)
		(0.90502793 0.80844954 0.00000000)
		(0.92178771 0.80809793 0.00000000)
		(0.93854749 0.80474595 0.00000000)
		(0.95530726 0.79842624 0.00000000)
		(0.97206704 0.78920034 0.00000000)
		(0.98882682 0.77715810 0.00000000)
		(1.00558659 0.76241679 0.00000000)
		(1.02234637 0.74511998 0.00000000)
		(1.03910615 0.72543609 0.00000000)
		(1.05586592 0.70355682 0.00000000)
		(1.07262570 0.67969523 0.00000000)
		(1.08938547 0.65408371 0.00000000)
		(1.10614525 0.62697167 0.00000000)
		(1.12290503 0.59862312 0.00000000)
		(1.13966480 0.56931415 0.00000000)
		(1.15642458 0.53933017 0.00000000)
		(1.17318436 0.50896318 0.00000000)
		(1.18994413 0.47850891 0.00000000)
		(1.20670391 0.44826392 0.00000000)
		(1.22346369 0.41852275 0.00000000)
		(1.24022346 0.38957504 0.00000000)
		(1.25698324 0.36170269 0.00000000)
		(1.27374302 0.33517714 0.00000000)
		(1.29050279 0.31025669 0.00000000)
		(1.30726257 0.28718402 0.00000000)
		(1.32402235 0.26618385 0.00000000)
		(1.34078212 0.24746065 0.00000000)
		(1.35754190 0.23119679 0.00000000)
		(1.37430168 0.21755062 0.00000000)
		(1.39106145 0.20665506 0.00000000)
		(1.40782123 0.19861620 0.00000000)
		(1.42458101 0.19351232 0.00000000)
		(1.44134078 0.19139314 0.00000000)
		(1.45810056 0.19227928 0.00000000)
		(1.47486034 0.19616213 0.00000000)
		(1.49162011 0.20300386 0.00000000)
		(1.50837989 0.21273785 0.00000000)
		(1.52513966 0.22526930 0.00000000)
		(1.54189944 0.24047619 0.00000000)
		(1.55865922 0.25821041 0.00000000)
		(1.57541899 0.27829927 0.00000000)
		(1.59217877 0.30054714 0.00000000)
		(1.60893855 0.32473735 0.00000000)
		(1.62569832 0.35063434 0.00000000)
		(1.64245810 0.37798590 0.00000000)
		(1.65921788 0.40652569 0.00000000)
		(1.67597765 0.43597576 0.00000000)
		(1.69273743 0.46604932 0.00000000)
		(1.70949721 0.49645350 0.00000000)
		(1.72625698 0.52689223 0.00000000)
		(1.74301676 0.55706907 0.00000000)
		(1.75977654 0.58669014 0.00000000)
		(1.77653631 0.61546700 0.00000000)
		(1.79329609 0.64311940 0.00000000)
		(1.81005587 0.66937804 0.00000000)
		(1.82681564 0.69398722 0.00000000)
		(1.84357542 0.71670728 0.00000000)
		(1.86033520 0.73731696 0.00000000)
		(1.87709497 0.75561557 0.00000000)
		(1.89385475 0.77142489 0.00000000)
		(1.91061453 0.78459098 0.00000000)
		(1.92737430 0.79498561 0.00000000)
		(1.94413408 0.80250756 0.00000000)
		(1.96089385 0.80708358 0.00000000)
		(1.97765363 0.80866911 0.00000000)
		(1.99441341 0.80724870 0.00000000)
		(2.01117318 0.80283619 0.00000000)
		(2.02793296 0.79547455 0.00000000)
		(2.04469274 0.78523547 0.00000000)
		(2.06145251 0.77221866 0.00000000)
		(2.07821229 0.75655088 0.00000000)
		(2.09497207 0.73838471 0.00000000)
		(2.11173184 0.71789707 0.00000000)
		(2.12849162 0.69528746 0.00000000)
		(2.14525140 0.67077607 0.00000000)
		(2.16201117 0.64460159 0.00000000)
		(2.17877095 0.61701894 0.00000000)
		(2.19553073 0.58829671 0.00000000)
		(2.21229050 0.55871461 0.00000000)
		(2.22905028 0.52856073 0.00000000)
		(2.24581006 0.49812871 0.00000000)
		(2.26256983 0.46771492 0.00000000)
		(2.27932961 0.43761553 0.00000000)
		(2.29608939 0.40812367 0.00000000)
		(2.31284916 0.37952653 0.00000000)
		(2.32960894 0.35210260 0.00000000)
		(2.34636872 0.32611896 0.00000000)
		(2.36312849 0.30182863 0.00000000)
		(2.37988827 0.27946818 0.00000000)
		(2.39664804 0.25925534 0.00000000)
		(2.41340782 0.24138696 0.00000000)
		(2.43016760 0.22603705 0.00000000)
		(2.44692737 0.21335510 0.00000000)
		(2.46368715 0.20346460 0.00000000)
		(2.48044693 0.19646188 0.00000000)
		(2.49720670 0.19241512 0.00000000)
		(2.51396648 0.19136373 0.00000000)
		(2.53072626 0.19331797 0.00000000)
		(2.54748603 0.19825878 0.00000000)
		(2.56424581 0.20613807 0.00000000)