/*--------------------------------*- C++ -*----------------------------------*\\
/*--------------------------------*- C++ -*----------------------------------*\\
| =========                 |                                                 |
| \\\\      /  F ield         | OpenFOAM: The Open Source CFD Toolbox           |
|  \\\\    /   O peration     | Version:  v2012                                 |
|   \\\\  /    A nd           | Website:  www.openfoam.com                      |
|    \\\\/     M anipulation  |                                                 |
\\*---------------------------------------------------------------------------*/
FoamFile
{
    version     2.0;
    format      ascii;
    class       dictionary;
    object      blockMeshDict;
}
// * * * * * * * * * * * * * * * * * * * * * * * * * * * * * * * * * * * * * //

scale   0.01;

xmin -1;
xmax 5;
ymin 0;
ymax 0.5;
zmin 0;
zmax 0.1;

vertices
(
    (-1.00000000 -0.24158771 0.00000000)
    (4.00000000 0.08588432 0.00000000)
    (4.00000000 0.58588432 0.00000000)
    (-1.00000000 0.25841229 0.00000000)
    (-1.00000000 -0.24158771 0.10000000)
    (4.00000000 0.08588432 0.10000000)
    (4.00000000 0.58588432 0.10000000)
    (-1.00000000 0.25841229 0.10000000)
);

blocks
(
    hex (0 1 2 3 4 5 6 7) (200 20 1) simpleGrading (1 1 1)
);

edges
(
	polyLine 0 1
	(
		(-1.00000000 -0.24158771 0.00000000)
		(-0.98000000 -0.24158771 0.00000000)
		(-0.96000000 -0.24158771 0.00000000)
		(-0.94000000 -0.24158771 0.00000000)
		(-0.92000000 -0.24158771 0.00000000)
		(-0.90000000 -0.24158771 0.00000000)
		(-0.88000000 -0.24158771 0.00000000)
		(-0.86000000 -0.24158771 0.00000000)
		(-0.84000000 -0.24158771 0.00000000)
		(-0.82000000 -0.24158771 0.00000000)
		(-0.80000000 -0.24158771 0.00000000)
		(-0.78000000 -0.24158771 0.00000000)
		(-0.76000000 -0.24158771 0.00000000)
		(-0.74000000 -0.24158771 0.00000000)
		(-0.72000000 -0.24158771 0.00000000)
		(-0.70000000 -0.24158771 0.00000000)
		(-0.68000000 -0.24158771 0.00000000)
		(-0.66000000 -0.24158771 0.00000000)
		(-0.64000000 -0.24158771 0.00000000)
		(-0.62000000 -0.24158771 0.00000000)
		(-0.60000000 -0.24158771 0.00000000)
		(-0.58000000 -0.24158771 0.00000000)
		(-0.56000000 -0.24158771 0.00000000)
		(-0.54000000 -0.24158771 0.00000000)
		(-0.52000000 -0.24158771 0.00000000)
		(-0.50000000 -0.24158771 0.00000000)
		(-0.48000000 -0.24158771 0.00000000)
		(-0.46000000 -0.24158771 0.00000000)
		(-0.44000000 -0.24158771 0.00000000)
		(-0.42000000 -0.24158771 0.00000000)
		(-0.40000000 -0.24158771 0.00000000)
		(-0.38000000 -0.24158771 0.00000000)
		(-0.36000000 -0.24158771 0.00000000)
		(-0.34000000 -0.24158771 0.00000000)
		(-0.32000000 -0.24158771 0.00000000)
		(-0.30000000 -0.24158771 0.00000000)
		(-0.28000000 -0.24158771 0.00000000)
		(-0.26000000 -0.24158771 0.00000000)
		(-0.24000000 -0.24158771 0.00000000)
		(-0.22000000 -0.24158771 0.00000000)
		(-0.20000000 -0.24158771 0.00000000)
		(-0.18000000 -0.24158771 0.00000000)
		(-0.16000000 -0.24158771 0.00000000)
		(-0.14000000 -0.24158771 0.00000000)
		(-0.12000000 -0.24158771 0.00000000)
		(-0.10000000 -0.24158771 0.00000000)
		(-0.08162011 -0.24166936 0.00000000)
		(-0.06324022 -0.24191432 0.00000000)
		(-0.04486034 -0.24232258 0.00000000)
		(-0.02648045 -0.24289415 0.00000000)
		(-0.00810056 -0.24362903 0.00000000)
		(0.01027933 -0.24452721 0.00000000)
		(0.02865922 -0.24558869 0.00000000)
		(0.04703911 -0.24681348 0.00000000)
		(0.06541899 -0.24820158 0.00000000)
		(0.08379888 -0.24975298 0.00000000)
		(0.10055866 -0.24861317 0.00000000)
		(0.11731844 -0.24655091 0.00000000)
		(0.13407821 -0.24357387 0.00000000)
		(0.15083799 -0.23969308 0.00000000)
		(0.16759777 -0.23492295 0.00000000)
		(0.18435754 -0.22928118 0.00000000)
		(0.20111732 -0.22278869 0.00000000)
		(0.21787709 -0.21546958 0.00000000)
		(0.23463687 -0.20735100 0.00000000)
		(0.25139665 -0.19846307 0.00000000)
		(0.26815642 -0.18883878 0.00000000)
		(0.28491620 -0.17851383 0.00000000)
		(0.30167598 -0.16752654 0.00000000)
		(0.31843575 -0.15591766 0.00000000)
		(0.33519553 -0.14373027 0.00000000)
		(0.35195531 -0.13100959 0.00000000)
		(0.36871508 -0.11780283 0.00000000)
		(0.38547486 -0.10415897 0.00000000)
		(0.40223464 -0.09012865 0.00000000)
		(0.41899441 -0.07576391 0.00000000)
		(0.43575419 -0.06111807 0.00000000)
		(0.45251397 -0.04624546 0.00000000)
		(0.46927374 -0.03120126 0.00000000)
		(0.48603352 -0.01604130 0.00000000)
		(0.50279330 -0.00082181 0.00000000)
		(0.51955307 0.01440072 0.00000000)
		(0.53631285 0.02956982 0.00000000)
		(0.55307263 0.04462921 0.00000000)
		(0.56983240 0.05952301 0.00000000)
		(0.58659218 0.07419595 0.00000000)
		(0.60335196 0.08859361 0.00000000)
		(0.62011173 0.10266255 0.00000000)
		(0.63687151 0.11635057 0.00000000)
		(0.65363128 0.12960690 0.00000000)
		(0.67039106 0.14238234 0.00000000)
		(0.68715084 0.15462949 0.00000000)
		(0.70391061 0.16630291 0.00000000)
		(0.72067039 0.17735929 0.00000000)
		(0.73743017 0.18775761 0.00000000)
		(0.75418994 0.19745928 0.00000000)
		(0.77094972 0.20642831 0.00000000)
		(0.78770950 0.21463141 0.00000000)
		(0.80446927 0.22203816 0.00000000)
		(0.82122905 0.22862107 0.00000000)
		(0.83798883 0.23435572 0.00000000)
		(0.85474860 0.23922083 0.00000000)
		(0.87150838 0.24319834 0.00000000)
		(0.88826816 0.24627350 0.00000000)
		(0.90502793 0.24843491 0.00000000)
		(0.92178771 0.24967453 0.00000000)
		(0.93854749 0.24998777 0.00000000)
		(0.95530726 0.24937348 0.00000000)
		(0.97206704 0.24783392 0.00000000)
		(0.98882682 0.24537481 0.00000000)
		(1.00558659 0.24200527 0.00000000)
		(1.02234637 0.23773781 0.00000000)
		(1.03910615 0.23258826 0.00000000)
		(1.05586592 0.22657573 0.00000000)
		(1.07262570 0.21972252 0.00000000)
		(1.08938547 0.21205407 0.00000000)
		(1.10614525 0.20359882 0.00000000)
		(1.12290503 0.19438815 0.00000000)
		(1.13966480 0.18445623 0.00000000)
		(1.15642458 0.17383992 0.00000000)
		(1.17318436 0.16257859 0.00000000)
		(1.18994413 0.15071405 0.00000000)
		(1.20670391 0.13829030 0.00000000)
		(1.22346369 0.12535345 0.00000000)
		(1.24022346 0.11195150 0.00000000)
		(1.25698324 0.09813416 0.00000000)
		(1.27374302 0.08395271 0.00000000)
		(1.29050279 0.06945977 0.00000000)
		(1.30726257 0.05470911 0.00000000)
		(1.32402235 0.03975546 0.00000000)
		(1.34078212 0.02465431 0.00000000)
		(1.35754190 0.00946167 0.00000000)
		(1.37430168 -0.00576607 0.00000000)
		(1.39106145 -0.02097241 0.00000000)
		(1.40782123 -0.03610094 0.00000000)
		(1.42458101 -0.05109552 0.00000000)
		(1.44134078 -0.06590053 0.00000000)
		(1.45810056 -0.08046101 0.00000000)
		(1.47486034 -0.09472296 0.00000000)
		(1.49162011 -0.10863345 0.00000000)
		(1.50837989 -0.12214088 0.00000000)
		(1.52513966 -0.13519512 0.00000000)
		(1.54189944 -0.14774774 0.00000000)
		(1.55865922 -0.15975217 0.00000000)
		(1.57541899 -0.17116385 0.00000000)
		(1.59217877 -0.18194046 0.00000000)
		(1.60893855 -0.19204201 0.00000000)
		(1.62569832 -0.20143102 0.00000000)
		(1.64245810 -0.21007265 0.00000000)
		(1.65921788 -0.21793483 0.00000000)
		(1.67597765 -0.22498840 0.00000000)
		(1.69273743 -0.23120719 0.00000000)
		(1.70949721 -0.23656811 0.00000000)
		(1.72625698 -0.24105129 0.00000000)
		(1.74301676 -0.24464008 0.00000000)
		(1.75977654 -0.24732117 0.00000000)
		(1.77653631 -0.24908462 0.00000000)
		(1.79329609 -0.24992387 0.00000000)
		(1.81005587 -0.24983582 0.00000000)
		(1.82681564 -0.24882080 0.00000000)
		(1.84357542 -0.24688256 0.00000000)
		(1.86033520 -0.24402830 0.00000000)
		(1.87709497 -0.24026861 0.00000000)
		(1.89385475 -0.23561744 0.00000000)
		(1.91061453 -0.23009205 0.00000000)
		(1.92737430 -0.22371293 0.00000000)
		(1.94413408 -0.21650377 0.00000000)
		(1.96089385 -0.20849130 0.00000000)
		(1.97765363 -0.19970525 0.00000000)
		(1.99441341 -0.19017823 0.00000000)
		(2.01117318 -0.17994558 0.00000000)
		(2.02793296 -0.16904527 0.00000000)
		(2.04469274 -0.15751775 0.00000000)
		(2.06145251 -0.14540578 0.00000000)
		(2.07821229 -0.13275430 0.00000000)
		(2.09497207 -0.11961026 0.00000000)
		(2.11173184 -0.10602242 0.00000000)
		(2.12849162 -0.09204120 0.00000000)
		(2.14525140 -0.07771848 0.00000000)
		(2.16201117 -0.06310740 0.00000000)
		(2.17877095 -0.04826216 0.00000000)
		(2.19553073 -0.03323786 0.00000000)
		(2.21229050 -0.01809023 0.00000000)
		(2.22905028 -0.00287548 0.00000000)
		(2.24581006 0.01234994 0.00000000)
		(2.26256983 0.02752954 0.00000000)
		(2.27932961 0.04260699 0.00000000)
		(2.29608939 0.05752636 0.00000000)
		(2.31284916 0.07223228 0.00000000)
		(2.32960894 0.08667019 0.00000000)
		(2.34636872 0.10078653 0.00000000)
		(2.36312849 0.11452892 0.00000000)
		(2.37988827 0.12784636 0.00000000)
		(2.39664804 0.14068945 0.00000000)
		(2.41340782 0.15301054 0.00000000)
		(2.43016760 0.16476390 0.00000000)
		(2.44692737 0.17590592 0.00000000)
		(2.46368715 0.18639528 0.00000000)
		(2.48044693 0.19619305 0.00000000)
		(2.49720670 0.20526287 0.00000000)
		(2.51396648 0.21357109 0.00000000)
		(2.53072626 0.22108690 0.00000000)
		(2.54748603 0.22778239 0.00000000)
		(2.56424581 0.23363273 0.00000000)
		(2.58100559 0.23861621 0.00000000)
		(2.59776536 0.24271435 0.00000000)
		(2.61452514 0.24591192 0.00000000)
		(2.63128492 0.24819708 0.00000000)
		(2.64804469 0.24956135 0.00000000)
		(2.66480447 0.24999965 0.00000000)
		(2.68156425 0.24951037 0.00000000)
		(2.69832402 0.24809531 0.00000000)
		(2.71508380 0.24575974 0.00000000)
		(2.73184358 0.24251232 0.00000000)
		(2.74860335 0.23836508 0.00000000)
		(2.76536313 0.23333344 0.00000000)
		(2.78212291 0.22743604 0.00000000)
		(2.79888268 0.22069478 0.00000000)
		(2.81564246 0.21313466 0.00000000)
		(2.83240223 0.20478374 0.00000000)
		(2.84916201 0.19567300 0.00000000)
		(2.86592179 0.18583624 0.00000000)
		(2.88268156 0.17530997 0.00000000)
		(2.89944134 0.16413324 0.00000000)
		(2.91620112 0.15234751 0.00000000)
		(2.93296089 0.13999652 0.00000000)
		(2.95166480 0.12971521 0.00000000)
		(2.97036872 0.12051613 0.00000000)
		(2.98907263 0.11239930 0.00000000)
		(3.00777654 0.10536472 0.00000000)
		(3.02648045 0.09941237 0.00000000)
		(3.04518436 0.09454228 0.00000000)
		(3.06388827 0.09075442 0.00000000)
		(3.08259218 0.08804881 0.00000000)
		(3.10129609 0.08642545 0.00000000)
		(3.12000000 0.08588432 0.00000000)
		(3.14000000 0.08588432 0.00000000)
		(3.16000000 0.08588432 0.00000000)
		(3.18000000 0.08588432 0.00000000)
		(3.20000000 0.08588432 0.00000000)
		(3.22000000 0.08588432 0.00000000)
		(3.24000000 0.08588432 0.00000000)
		(3.26000000 0.08588432 0.00000000)
		(3.28000000 0.08588432 0.00000000)
		(3.30000000 0.08588432 0.00000000)
		(3.32000000 0.08588432 0.00000000)
		(3.34000000 0.08588432 0.00000000)
		(3.36000000 0.08588432 0.00000000)
		(3.38000000 0.08588432 0.00000000)
		(3.40000000 0.08588432 0.00000000)
		(3.42000000 0.08588432 0.00000000)
		(3.44000000 0.08588432 0.00000000)
		(3.46000000 0.08588432 0.00000000)
		(3.48000000 0.08588432 0.00000000)
		(3.50000000 0.08588432 0.00000000)
		(3.52000000 0.08588432 0.00000000)
		(3.54000000 0.08588432 0.00000000)
		(3.56000000 0.08588432 0.00000000)
		(3.58000000 0.08588432 0.00000000)
		(3.60000000 0.08588432 0.00000000)
		(3.62000000 0.08588432 0.00000000)
		(3.64000000 0.08588432 0.00000000)
		(3.66000000 0.08588432 0.00000000)
		(3.68000000 0.08588432 0.00000000)
		(3.70000000 0.08588432 0.00000000)
		(3.72000000 0.08588432 0.00000000)
		(3.74000000 0.08588432 0.00000000)
		(3.76000000 0.08588432 0.00000000)
		(3.78000000 0.08588432 0.00000000)
		(3.80000000 0.08588432 0.00000000)
		(3.82000000 0.08588432 0.00000000)
		(3.84000000 0.08588432 0.00000000)
		(3.86000000 0.08588432 0.00000000)
		(3.88000000 0.08588432 0.00000000)
		(3.90000000 0.08588432 0.00000000)
		(3.92000000 0.08588432 0.00000000)
		(3.94000000 0.08588432 0.00000000)
		(3.96000000 0.08588432 0.00000000)
		(3.98000000 0.08588432 0.00000000)
		(4.00000000 0.08588432 0.00000000)
	)
	polyLine 4 5
	(
		(-1.00000000 -0.24158771 0.10000000)
		(-0.98000000 -0.24158771 0.10000000)
		(-0.96000000 -0.24158771 0.10000000)
		(-0.94000000 -0.24158771 0.10000000)
		(-0.92000000 -0.24158771 0.10000000)
		(-0.90000000 -0.24158771 0.10000000)
		(-0.88000000 -0.24158771 0.10000000)
		(-0.86000000 -0.24158771 0.10000000)
		(-0.84000000 -0.24158771 0.10000000)
		(-0.82000000 -0.24158771 0.10000000)
		(-0.80000000 -0.24158771 0.10000000)
		(-0.78000000 -0.24158771 0.10000000)
		(-0.76000000 -0.24158771 0.10000000)
		(-0.74000000 -0.24158771 0.10000000)
		(-0.72000000 -0.24158771 0.10000000)
		(-0.70000000 -0.24158771 0.10000000)
		(-0.68000000 -0.24158771 0.10000000)
		(-0.66000000 -0.24158771 0.10000000)
		(-0.64000000 -0.24158771 0.10000000)
		(-0.62000000 -0.24158771 0.10000000)
		(-0.60000000 -0.24158771 0.10000000)
		(-0.58000000 -0.24158771 0.10000000)
		(-0.56000000 -0.24158771 0.10000000)
		(-0.54000000 -0.24158771 0.10000000)
		(-0.52000000 -0.24158771 0.10000000)
		(-0.50000000 -0.24158771 0.10000000)
		(-0.48000000 -0.24158771 0.10000000)
		(-0.46000000 -0.24158771 0.10000000)
		(-0.44000000 -0.24158771 0.10000000)
		(-0.42000000 -0.24158771 0.10000000)
		(-0.40000000 -0.24158771 0.10000000)
		(-0.38000000 -0.24158771 0.10000000)
		(-0.36000000 -0.24158771 0.10000000)
		(-0.34000000 -0.24158771 0.10000000)
		(-0.32000000 -0.24158771 0.10000000)
		(-0.30000000 -0.24158771 0.10000000)
		(-0.28000000 -0.24158771 0.10000000)
		(-0.26000000 -0.24158771 0.10000000)
		(-0.24000000 -0.24158771 0.10000000)
		(-0.22000000 -0.24158771 0.10000000)
		(-0.20000000 -0.24158771 0.10000000)
		(-0.18000000 -0.24158771 0.10000000)
		(-0.16000000 -0.24158771 0.10000000)
		(-0.14000000 -0.24158771 0.10000000)
		(-0.12000000 -0.24158771 0.10000000)
		(-0.10000000 -0.24158771 0.10000000)
		(-0.08162011 -0.24166936 0.10000000)
		(-0.06324022 -0.24191432 0.10000000)
		(-0.04486034 -0.24232258 0.10000000)
		(-0.02648045 -0.24289415 0.10000000)
		(-0.00810056 -0.24362903 0.10000000)
		(0.01027933 -0.24452721 0.10000000)
		(0.02865922 -0.24558869 0.10000000)
		(0.04703911 -0.24681348 0.10000000)
		(0.06541899 -0.24820158 0.10000000)
		(0.08379888 -0.24975298 0.10000000)
		(0.10055866 -0.24861317 0.10000000)
		(0.11731844 -0.24655091 0.10000000)
		(0.13407821 -0.24357387 0.10000000)
		(0.15083799 -0.23969308 0.10000000)
		(0.16759777 -0.23492295 0.10000000)
		(0.18435754 -0.22928118 0.10000000)
		(0.20111732 -0.22278869 0.10000000)
		(0.21787709 -0.21546958 0.10000000)
		(0.23463687 -0.20735100 0.10000000)
		(0.25139665 -0.19846307 0.10000000)
		(0.26815642 -0.18883878 0.10000000)
		(0.28491620 -0.17851383 0.10000000)
		(0.30167598 -0.16752654 0.10000000)
		(0.31843575 -0.15591766 0.10000000)
		(0.33519553 -0.14373027 0.10000000)
		(0.35195531 -0.13100959 0.10000000)
		(0.36871508 -0.11780283 0.10000000)
		(0.38547486 -0.10415897 0.10000000)
		(0.40223464 -0.09012865 0.10000000)
		(0.41899441 -0.07576391 0.10000000)
		(0.43575419 -0.06111807 0.10000000)
		(0.45251397 -0.04624546 0.10000000)
		(0.46927374 -0.03120126 0.10000000)
		(0.48603352 -0.01604130 0.10000000)
		(0.50279330 -0.00082181 0.10000000)
		(0.51955307 0.01440072 0.10000000)
		(0.53631285 0.02956982 0.10000000)
		(0.55307263 0.04462921 0.10000000)
		(0.56983240 0.05952301 0.10000000)
		(0.58659218 0.07419595 0.10000000)
		(0.60335196 0.08859361 0.10000000)
		(0.62011173 0.10266255 0.10000000)
		(0.63687151 0.11635057 0.10000000)
		(0.65363128 0.12960690 0.10000000)
		(0.67039106 0.14238234 0.10000000)
		(0.68715084 0.15462949 0.10000000)
		(0.70391061 0.16630291 0.10000000)
		(0.72067039 0.17735929 0.10000000)
		(0.73743017 0.18775761 0.10000000)
		(0.75418994 0.19745928 0.10000000)
		(0.77094972 0.20642831 0.10000000)
		(0.78770950 0.21463141 0.10000000)
		(0.80446927 0.22203816 0.10000000)
		(0.82122905 0.22862107 0.10000000)
		(0.83798883 0.23435572 0.10000000)
		(0.85474860 0.23922083 0.10000000)
		(0.87150838 0.24319834 0.10000000)
		(0.88826816 0.24627350 0.10000000)
		(0.90502793 0.24843491 0.10000000)
		(0.92178771 0.24967453 0.10000000)
		(0.93854749 0.24998777 0.10000000)
		(0.95530726 0.24937348 0.10000000)
		(0.97206704 0.24783392 0.10000000)
		(0.98882682 0.24537481 0.10000000)
		(1.00558659 0.24200527 0.10000000)
		(1.02234637 0.23773781 0.10000000)
		(1.03910615 0.23258826 0.10000000)
		(1.05586592 0.22657573 0.10000000)
		(1.07262570 0.21972252 0.10000000)
		(1.08938547 0.21205407 0.10000000)
		(1.10614525 0.20359882 0.10000000)
		(1.12290503 0.19438815 0.10000000)
		(1.13966480 0.18445623 0.10000000)
		(1.15642458 0.17383992 0.10000000)
		(1.17318436 0.16257859 0.10000000)
		(1.18994413 0.15071405 0.10000000)
		(1.20670391 0.13829030 0.10000000)
		(1.22346369 0.12535345 0.10000000)
		(1.24022346 0.11195150 0.10000000)
		(1.25698324 0.09813416 0.10000000)
		(1.27374302 0.08395271 0.10000000)
		(1.29050279 0.06945977 0.10000000)
		(1.30726257 0.05470911 0.10000000)
		(1.32402235 0.03975546 0.10000000)
		(1.34078212 0.02465431 0.10000000)
		(1.35754190 0.00946167 0.10000000)
		(1.37430168 -0.00576607 0.10000000)
		(1.39106145 -0.02097241 0.10000000)
		(1.40782123 -0.03610094 0.10000000)
		(1.42458101 -0.05109552 0.10000000)
		(1.44134078 -0.06590053 0.10000000)
		(1.45810056 -0.08046101 0.10000000)
		(1.47486034 -0.09472296 0.10000000)
		(1.49162011 -0.10863345 0.10000000)
		(1.50837989 -0.12214088 0.10000000)
		(1.52513966 -0.13519512 0.10000000)
		(1.54189944 -0.14774774 0.10000000)
		(1.55865922 -0.15975217 0.10000000)
		(1.57541899 -0.17116385 0.10000000)
		(1.59217877 -0.18194046 0.10000000)
		(1.60893855 -0.19204201 0.10000000)
		(1.62569832 -0.20143102 0.10000000)
		(1.64245810 -0.21007265 0.10000000)
		(1.65921788 -0.21793483 0.10000000)
		(1.67597765 -0.22498840 0.10000000)
		(1.69273743 -0.23120719 0.10000000)
		(1.70949721 -0.23656811 0.10000000)
		(1.72625698 -0.24105129 0.10000000)
		(1.74301676 -0.24464008 0.10000000)
		(1.75977654 -0.24732117 0.10000000)
		(1.77653631 -0.24908462 0.10000000)
		(1.79329609 -0.24992387 0.10000000)
		(1.81005587 -0.24983582 0.10000000)
		(1.82681564 -0.24882080 0.10000000)
		(1.84357542 -0.24688256 0.10000000)
		(1.86033520 -0.24402830 0.10000000)
		(1.87709497 -0.24026861 0.10000000)
		(1.89385475 -0.23561744 0.10000000)
		(1.91061453 -0.23009205 0.10000000)
		(1.92737430 -0.22371293 0.10000000)
		(1.94413408 -0.21650377 0.10000000)
		(1.96089385 -0.20849130 0.10000000)
		(1.97765363 -0.19970525 0.10000000)
		(1.99441341 -0.19017823 0.10000000)
		(2.01117318 -0.17994558 0.10000000)
		(2.02793296 -0.16904527 0.10000000)
		(2.04469274 -0.15751775 0.10000000)
		(2.06145251 -0.14540578 0.10000000)
		(2.07821229 -0.13275430 0.10000000)
		(2.09497207 -0.11961026 0.10000000)
		(2.11173184 -0.10602242 0.10000000)
		(2.12849162 -0.09204120 0.10000000)
		(2.14525140 -0.07771848 0.10000000)
		(2.16201117 -0.06310740 0.10000000)
		(2.17877095 -0.04826216 0.10000000)
		(2.19553073 -0.03323786 0.10000000)
		(2.21229050 -0.01809023 0.10000000)
		(2.22905028 -0.00287548 0.10000000)
		(2.24581006 0.01234994 0.10000000)
		(2.26256983 0.02752954 0.10000000)
		(2.27932961 0.04260699 0.10000000)
		(2.29608939 0.05752636 0.10000000)
		(2.31284916 0.07223228 0.10000000)
		(2.32960894 0.08667019 0.10000000)
		(2.34636872 0.10078653 0.10000000)
		(2.36312849 0.11452892 0.10000000)
		(2.37988827 0.12784636 0.10000000)
		(2.39664804 0.14068945 0.10000000)
		(2.41340782 0.15301054 0.10000000)
		(2.43016760 0.16476390 0.10000000)
		(2.44692737 0.17590592 0.10000000)
		(2.46368715 0.18639528 0.10000000)
		(2.48044693 0.19619305 0.10000000)
		(2.49720670 0.20526287 0.10000000)
		(2.51396648 0.21357109 0.10000000)
		(2.53072626 0.22108690 0.10000000)
		(2.54748603 0.22778239 0.10000000)
		(2.56424581 0.23363273 0.10000000)
		(2.58100559 0.23861621 0.10000000)
		(2.59776536 0.24271435 0.10000000)
		(2.61452514 0.24591192 0.10000000)
		(2.63128492 0.24819708 0.10000000)
		(2.64804469 0.24956135 0.10000000)
		(2.66480447 0.24999965 0.10000000)
		(2.68156425 0.24951037 0.10000000)
		(2.69832402 0.24809531 0.10000000)
		(2.71508380 0.24575974 0.10000000)
		(2.73184358 0.24251232 0.10000000)
		(2.74860335 0.23836508 0.10000000)
		(2.76536313 0.23333344 0.10000000)
		(2.78212291 0.22743604 0.10000000)
		(2.79888268 0.22069478 0.10000000)
		(2.81564246 0.21313466 0.10000000)
		(2.83240223 0.20478374 0.10000000)
		(2.84916201 0.19567300 0.10000000)
		(2.86592179 0.18583624 0.10000000)
		(2.88268156 0.17530997 0.10000000)
		(2.89944134 0.16413324 0.10000000)
		(2.91620112 0.15234751 0.10000000)
		(2.93296089 0.13999652 0.10000000)
		(2.95166480 0.12971521 0.10000000)
		(2.97036872 0.12051613 0.10000000)
		(2.98907263 0.11239930 0.10000000)
		(3.00777654 0.10536472 0.10000000)
		(3.02648045 0.09941237 0.10000000)
		(3.04518436 0.09454228 0.10000000)
		(3.06388827 0.09075442 0.10000000)
		(3.08259218 0.08804881 0.10000000)
		(3.10129609 0.08642545 0.10000000)
		(3.12000000 0.08588432 0.10000000)
		(3.14000000 0.08588432 0.10000000)
		(3.16000000 0.08588432 0.10000000)
		(3.18000000 0.08588432 0.10000000)
		(3.20000000 0.08588432 0.10000000)
		(3.22000000 0.08588432 0.10000000)
		(3.24000000 0.08588432 0.10000000)
		(3.26000000 0.08588432 0.10000000)
		(3.28000000 0.08588432 0.10000000)
		(3.30000000 0.08588432 0.10000000)
		(3.32000000 0.08588432 0.10000000)
		(3.34000000 0.08588432 0.10000000)
		(3.36000000 0.08588432 0.10000000)
		(3.38000000 0.08588432 0.10000000)
		(3.40000000 0.08588432 0.10000000)
		(3.42000000 0.08588432 0.10000000)
		(3.44000000 0.08588432 0.10000000)
		(3.46000000 0.08588432 0.10000000)
		(3.48000000 0.08588432 0.10000000)
		(3.50000000 0.08588432 0.10000000)
		(3.52000000 0.08588432 0.10000000)
		(3.54000000 0.08588432 0.10000000)
		(3.56000000 0.08588432 0.10000000)
		(3.58000000 0.08588432 0.10000000)
		(3.60000000 0.08588432 0.10000000)
		(3.62000000 0.08588432 0.10000000)
		(3.64000000 0.08588432 0.10000000)
		(3.66000000 0.08588432 0.10000000)
		(3.68000000 0.08588432 0.10000000)
		(3.70000000 0.08588432 0.10000000)
		(3.72000000 0.08588432 0.10000000)
		(3.74000000 0.08588432 0.10000000)
		(3.76000000 0.08588432 0.10000000)
		(3.78000000 0.08588432 0.10000000)
		(3.80000000 0.08588432 0.10000000)
		(3.82000000 0.08588432 0.10000000)
		(3.84000000 0.08588432 0.10000000)
		(3.86000000 0.08588432 0.10000000)
		(3.88000000 0.08588432 0.10000000)
		(3.90000000 0.08588432 0.10000000)
		(3.92000000 0.08588432 0.10000000)
		(3.94000000 0.08588432 0.10000000)
		(3.96000000 0.08588432 0.10000000)
		(3.98000000 0.08588432 0.10000000)
		(4.00000000 0.08588432 0.10000000)
	)
	polyLine 3 2
	(
		(-1.00000000 0.25841229 0.00000000)
		(-0.98000000 0.26030525 0.00000000)
		(-0.96000000 0.26219820 0.00000000)
		(-0.94000000 0.26409115 0.00000000)
		(-0.92000000 0.26598411 0.00000000)
		(-0.90000000 0.26787706 0.00000000)
		(-0.88000000 0.26977002 0.00000000)
		(-0.86000000 0.27166297 0.00000000)
		(-0.84000000 0.27355593 0.00000000)
		(-0.82000000 0.27544888 0.00000000)
		(-0.80000000 0.27734184 0.00000000)
		(-0.78000000 0.27923479 0.00000000)
		(-0.76000000 0.28112774 0.00000000)
		(-0.74000000 0.28302070 0.00000000)
		(-0.72000000 0.28491365 0.00000000)
		(-0.70000000 0.28680661 0.00000000)
		(-0.68000000 0.28869956 0.00000000)
		(-0.66000000 0.29059252 0.00000000)
		(-0.64000000 0.29248547 0.00000000)
		(-0.62000000 0.29437842 0.00000000)
		(-0.60000000 0.29627138 0.00000000)
		(-0.58000000 0.29816433 0.00000000)
		(-0.56000000 0.30005729 0.00000000)
		(-0.54000000 0.30195024 0.00000000)
		(-0.52000000 0.30384320 0.00000000)
		(-0.50000000 0.30573615 0.00000000)
		(-0.48000000 0.30762911 0.00000000)
		(-0.46000000 0.30952206 0.00000000)
		(-0.44000000 0.31141501 0.00000000)
		(-0.42000000 0.31330797 0.00000000)
		(-0.40000000 0.31520092 0.00000000)
		(-0.38000000 0.31709388 0.00000000)
		(-0.36000000 0.31898683 0.00000000)
		(-0.34000000 0.32087979 0.00000000)
		(-0.32000000 0.32277274 0.00000000)
		(-0.30000000 0.32466570 0.00000000)
		(-0.28000000 0.32655865 0.00000000)
		(-0.26000000 0.32845160 0.00000000)
		(-0.24000000 0.33034456 0.00000000)
		(-0.22000000 0.33223751 0.00000000)
		(-0.20000000 0.33413047 0.00000000)
		(-0.18000000 0.33602342 0.00000000)
		(-0.16000000 0.33791638 0.00000000)
		(-0.14000000 0.33980933 0.00000000)
		(-0.12000000 0.34170228 0.00000000)
		(-0.10000000 0.34359524 0.00000000)
		(-0.08162011 0.34495182 0.00000000)
		(-0.06324022 0.34606342 0.00000000)
		(-0.04486034 0.34693003 0.00000000)
		(-0.02648045 0.34755166 0.00000000)
		(-0.00810056 0.34792831 0.00000000)
		(0.01027933 0.34805997 0.00000000)
		(0.02865922 0.34794664 0.00000000)
		(0.04703911 0.34758833 0.00000000)
		(0.06541899 0.34698503 0.00000000)
		(0.08379888 0.34613675 0.00000000)
		(0.10055866 0.34683894 0.00000000)
		(0.11731844 0.34810942 0.00000000)
		(0.13407821 0.34994346 0.00000000)
		(0.15083799 0.35233426 0.00000000)
		(0.16759777 0.35527296 0.00000000)
		(0.18435754 0.35874864 0.00000000)
		(0.20111732 0.36274841 0.00000000)
		(0.21787709 0.36725744 0.00000000)
		(0.23463687 0.37225899 0.00000000)
		(0.25139665 0.37773450 0.00000000)
		(0.26815642 0.38366365 0.00000000)
		(0.28491620 0.39002446 0.00000000)
		(0.30167598 0.39679331 0.00000000)
		(0.31843575 0.40394510 0.00000000)
		(0.33519553 0.41145328 0.00000000)
		(0.35195531 0.41929000 0.00000000)
		(0.36871508 0.42742619 0.00000000)
		(0.38547486 0.43583164 0.00000000)
		(0.40223464 0.44447519 0.00000000)
		(0.41899441 0.45332475 0.00000000)
		(0.43575419 0.46234749 0.00000000)
		(0.45251397 0.47150994 0.00000000)
		(0.46927374 0.48077810 0.00000000)
		(0.48603352 0.49011757 0.00000000)
		(0.50279330 0.49949371 0.00000000)
		(0.51955307 0.50887173 0.00000000)
		(0.53631285 0.51821684 0.00000000)
		(0.55307263 0.52749435 0.00000000)
		(0.56983240 0.53666985 0.00000000)
		(0.58659218 0.54570929 0.00000000)
		(0.60335196 0.55457913 0.00000000)
		(0.62011173 0.56324647 0.00000000)
		(0.63687151 0.57167914 0.00000000)
		(0.65363128 0.57984585 0.00000000)
		(0.67039106 0.58771631 0.00000000)
		(0.68715084 0.59526131 0.00000000)
		(0.70391061 0.60245286 0.00000000)
		(0.72067039 0.60926427 0.00000000)
		(0.73743017 0.61567028 0.00000000)
		(0.75418994 0.62164711 0.00000000)
		(0.77094972 0.62717258 0.00000000)
		(0.78770950 0.63222620 0.00000000)
		(0.80446927 0.63678922 0.00000000)
		(0.82122905 0.64084470 0.00000000)
		(0.83798883 0.64437759 0.00000000)
		(0.85474860 0.64737480 0.00000000)
		(0.87150838 0.64982519 0.00000000)
		(0.88826816 0.65171968 0.00000000)
		(0.90502793 0.65305124 0.00000000)
		(0.92178771 0.65381492 0.00000000)
		(0.93854749 0.65400790 0.00000000)
		(0.95530726 0.65362946 0.00000000)
		(0.97206704 0.65268099 0.00000000)
		(0.98882682 0.65116603 0.00000000)
		(1.00558659 0.64909019 0.00000000)
		(1.02234637 0.64646117 0.00000000)
		(1.03910615 0.64328873 0.00000000)
		(1.05586592 0.63958464 0.00000000)
		(1.07262570 0.63536264 0.00000000)
		(1.08938547 0.63063840 0.00000000)
		(1.10614525 0.62542944 0.00000000)
		(1.12290503 0.61975510 0.00000000)
		(1.13966480 0.61363643 0.00000000)
		(1.15642458 0.60709612 0.00000000)
		(1.17318436 0.60015845 0.00000000)
		(1.18994413 0.59284916 0.00000000)
		(1.20670391 0.58519536 0.00000000)
		(1.22346369 0.57722547 0.00000000)
		(1.24022346 0.56896903 0.00000000)
		(1.25698324 0.56045670 0.00000000)
		(1.27374302 0.55172006 0.00000000)
		(1.29050279 0.54279151 0.00000000)
		(1.30726257 0.53370419 0.00000000)
		(1.32402235 0.52449182 0.00000000)
		(1.34078212 0.51518857 0.00000000)
		(1.35754190 0.50582897 0.00000000)
		(1.37430168 0.49644775 0.00000000)
		(1.39106145 0.48707970 0.00000000)
		(1.40782123 0.47775959 0.00000000)
		(1.42458101 0.46852200 0.00000000)
		(1.44134078 0.45940121 0.00000000)
		(1.45810056 0.45043105 0.00000000)
		(1.47486034 0.44164481 0.00000000)
		(1.49162011 0.43307509 0.00000000)
		(1.50837989 0.42475368 0.00000000)
		(1.52513966 0.41671146 0.00000000)
		(1.54189944 0.40897827 0.00000000)
		(1.55865922 0.40158280 0.00000000)
		(1.57541899 0.39455250 0.00000000)
		(1.59217877 0.38791344 0.00000000)
		(1.60893855 0.38169026 0.00000000)
		(1.62569832 0.37590606 0.00000000)
		(1.64245810 0.37058228 0.00000000)
		(1.65921788 0.36573869 0.00000000)
		(1.67597765 0.36139326 0.00000000)
		(1.69273743 0.35756210 0.00000000)
		(1.70949721 0.35425944 0.00000000)
		(1.72625698 0.35149753 0.00000000)
		(1.74301676 0.34928661 0.00000000)
		(1.75977654 0.34763489 0.00000000)
		(1.77653631 0.34654850 0.00000000)
		(1.79329609 0.34603147 0.00000000)
		(1.81005587 0.34608571 0.00000000)
		(1.82681564 0.34671103 0.00000000)
		(1.84357542 0.34790510 0.00000000)
		(1.86033520 0.34966350 0.00000000)
		(1.87709497 0.35197970 0.00000000)
		(1.89385475 0.35484511 0.00000000)
		(1.91061453 0.35824909 0.00000000)
		(1.92737430 0.36217902 0.00000000)
		(1.94413408 0.36662031 0.00000000)
		(1.96089385 0.37155649 0.00000000)
		(1.97765363 0.37696924 0.00000000)
		(1.99441341 0.38283847 0.00000000)
		(2.01117318 0.38914241 0.00000000)
		(2.02793296 0.39585768 0.00000000)
		(2.04469274 0.40295934 0.00000000)
		(2.06145251 0.41042106 0.00000000)
		(2.07821229 0.41821516 0.00000000)
		(2.09497207 0.42631270 0.00000000)
		(2.11173184 0.43468364 0.00000000)
		(2.12849162 0.44329694 0.00000000)
		(2.14525140 0.45212062 0.00000000)
		(2.16201117 0.46112195 0.00000000)
		(2.17877095 0.47026753 0.00000000)
		(2.19553073 0.47952343 0.00000000)
		(2.21229050 0.48885530 0.00000000)
		(2.22905028 0.49822853 0.00000000)
		(2.24581006 0.50760833 0.00000000)
		(2.26256983 0.51695989 0.00000000)
		(2.27932961 0.52624854 0.00000000)
		(2.29608939 0.53543979 0.00000000)
		(2.31284916 0.54449954 0.00000000)
		(2.32960894 0.55339419 0.00000000)
		(2.34636872 0.56209073 0.00000000)
		(2.36312849 0.57055688 0.00000000)
		(2.37988827 0.57876125 0.00000000)
		(2.39664804 0.58667339 0.00000000)
		(2.41340782 0.59426394 0.00000000)
		(2.43016760 0.60150473 0.00000000)
		(2.44692737 0.60836891 0.00000000)
		(2.46368715 0.61483100 0.00000000)
		(2.48044693 0.62086703 0.00000000)
		(2.49720670 0.62645460 0.00000000)
		(2.51396648 0.63157298 0.00000000)
		(2.53072626 0.63620318 0.00000000)