/*--------------------------------*- C++ -*----------------------------------*\\
/*--------------------------------*- C++ -*----------------------------------*\\
| =========                 |                                                 |
| \\\\      /  F ield         | OpenFOAM: The Open Source CFD Toolbox           |
|  \\\\    /   O peration     | Version:  v2012                                 |
|   \\\\  /    A nd           | Website:  www.openfoam.com                      |
|    \\\\/     M anipulation  |                                                 |
\\*---------------------------------------------------------------------------*/
FoamFile
{
    version     2.0;
    format      ascii;
    class       dictionary;
    object      blockMeshDict;
}
// * * * * * * * * * * * * * * * * * * * * * * * * * * * * * * * * * * * * * //

scale   0.01;

xmin -1;
xmax 5;
ymin 0;
ymax 0.5;
zmin 0;
zmax 0.1;

vertices
(
    (-1.00000000 0.17745820 0.00000000)
    (4.00000000 -0.23543601 0.00000000)
    (4.00000000 0.26456399 0.00000000)
    (-1.00000000 0.67745820 0.00000000)
    (-1.00000000 0.17745820 0.10000000)
    (4.00000000 -0.23543601 0.10000000)
    (4.00000000 0.26456399 0.10000000)
    (-1.00000000 0.67745820 0.10000000)
);

blocks
(
    hex (0 1 2 3 4 5 6 7) (200 20 1) simpleGrading (1 1 1)
);

edges
(
	polyLine 0 1
	(
		(-1.00000000 0.17745820 0.00000000)
		(-0.98000000 0.17745820 0.00000000)
		(-0.96000000 0.17745820 0.00000000)
		(-0.94000000 0.17745820 0.00000000)
		(-0.92000000 0.17745820 0.00000000)
		(-0.90000000 0.17745820 0.00000000)
		(-0.88000000 0.17745820 0.00000000)
		(-0.86000000 0.17745820 0.00000000)
		(-0.84000000 0.17745820 0.00000000)
		(-0.82000000 0.17745820 0.00000000)
		(-0.80000000 0.17745820 0.00000000)
		(-0.78000000 0.17745820 0.00000000)
		(-0.76000000 0.17745820 0.00000000)
		(-0.74000000 0.17745820 0.00000000)
		(-0.72000000 0.17745820 0.00000000)
		(-0.70000000 0.17745820 0.00000000)
		(-0.68000000 0.17745820 0.00000000)
		(-0.66000000 0.17745820 0.00000000)
		(-0.64000000 0.17745820 0.00000000)
		(-0.62000000 0.17745820 0.00000000)
		(-0.60000000 0.17745820 0.00000000)
		(-0.58000000 0.17745820 0.00000000)
		(-0.56000000 0.17745820 0.00000000)
		(-0.54000000 0.17745820 0.00000000)
		(-0.52000000 0.17745820 0.00000000)
		(-0.50000000 0.17745820 0.00000000)
		(-0.48000000 0.17745820 0.00000000)
		(-0.46000000 0.17745820 0.00000000)
		(-0.44000000 0.17745820 0.00000000)
		(-0.42000000 0.17745820 0.00000000)
		(-0.40000000 0.17745820 0.00000000)
		(-0.38000000 0.17745820 0.00000000)
		(-0.36000000 0.17745820 0.00000000)
		(-0.34000000 0.17745820 0.00000000)
		(-0.32000000 0.17745820 0.00000000)
		(-0.30000000 0.17745820 0.00000000)
		(-0.28000000 0.17745820 0.00000000)
		(-0.26000000 0.17745820 0.00000000)
		(-0.24000000 0.17745820 0.00000000)
		(-0.22000000 0.17745820 0.00000000)
		(-0.20000000 0.17745820 0.00000000)
		(-0.18000000 0.17745820 0.00000000)
		(-0.16000000 0.17745820 0.00000000)
		(-0.14000000 0.17745820 0.00000000)
		(-0.12000000 0.17745820 0.00000000)
		(-0.10000000 0.17745820 0.00000000)
		(-0.08162011 0.17804831 0.00000000)
		(-0.06324022 0.17981862 0.00000000)
		(-0.04486034 0.18276915 0.00000000)
		(-0.02648045 0.18689989 0.00000000)
		(-0.00810056 0.19221083 0.00000000)
		(0.01027933 0.19870199 0.00000000)
		(0.02865922 0.20637335 0.00000000)
		(0.04703911 0.21522493 0.00000000)
		(0.06541899 0.22525672 0.00000000)
		(0.08379888 0.23646871 0.00000000)
		(0.10055866 0.24281590 0.00000000)
		(0.11731844 0.24718870 0.00000000)
		(0.13407821 0.24955156 0.00000000)
		(0.15083799 0.24988526 0.00000000)
		(0.16759777 0.24818709 0.00000000)
		(0.18435754 0.24447086 0.00000000)
		(0.20111732 0.23876678 0.00000000)
		(0.21787709 0.23112124 0.00000000)
		(0.23463687 0.22159641 0.00000000)
		(0.25139665 0.21026973 0.00000000)
		(0.26815642 0.19723330 0.00000000)
		(0.28491620 0.18259312 0.00000000)
		(0.30167598 0.16646825 0.00000000)
		(0.31843575 0.14898978 0.00000000)
		(0.33519553 0.13029985 0.00000000)
		(0.35195531 0.11055042 0.00000000)
		(0.36871508 0.08990208 0.00000000)
		(0.38547486 0.06852273 0.00000000)
		(0.40223464 0.04658621 0.00000000)
		(0.41899441 0.02427088 0.00000000)
		(0.43575419 0.00175821 0.00000000)
		(0.45251397 -0.02076877 0.00000000)
		(0.46927374 -0.04312686 0.00000000)
		(0.48603352 -0.06513429 0.00000000)
		(0.50279330 -0.08661209 0.00000000)
		(0.51955307 -0.10738564 0.00000000)
		(0.53631285 -0.12728600 0.00000000)
		(0.55307263 -0.14615138 0.00000000)
		(0.56983240 -0.16382837 0.00000000)
		(0.58659218 -0.18017324 0.00000000)
		(0.60335196 -0.19505308 0.00000000)
		(0.62011173 -0.20834690 0.00000000)
		(0.63687151 -0.21994661 0.00000000)
		(0.65363128 -0.22975789 0.00000000)
		(0.67039106 -0.23770096 0.00000000)
		(0.68715084 -0.24371123 0.00000000)
		(0.70391061 -0.24773983 0.00000000)
		(0.72067039 -0.24975401 0.00000000)
		(0.73743017 -0.24973739 0.00000000)
		(0.75418994 -0.24769010 0.00000000)
		(0.77094972 -0.24362879 0.00000000)
		(0.78770950 -0.23758648 0.00000000)
		(0.80446927 -0.22961231 0.00000000)
		(0.82122905 -0.21977111 0.00000000)
		(0.83798883 -0.20814290 0.00000000)
		(0.85474860 -0.19482224 0.00000000)
		(0.87150838 -0.17991744 0.00000000)
		(0.88826816 -0.16354970 0.00000000)
		(0.90502793 -0.14585210 0.00000000)
		(0.92178771 -0.12696854 0.00000000)
		(0.93854749 -0.10705257 0.00000000)
		(0.95530726 -0.08626614 0.00000000)
		(0.97206704 -0.06477826 0.00000000)
		(0.98882682 -0.04276365 0.00000000)
		(1.00558659 -0.02040133 0.00000000)
		(1.02234637 0.00212689 0.00000000)
		(1.03910615 0.02463781 0.00000000)
		(1.05586592 0.04694839 0.00000000)
		(1.07262570 0.06887723 0.00000000)
		(1.08938547 0.09024601 0.00000000)
		(1.10614525 0.11088098 0.00000000)
		(1.12290503 0.13061436 0.00000000)
		(1.13966480 0.14928568 0.00000000)
		(1.15642458 0.16674313 0.00000000)
		(1.17318436 0.18284476 0.00000000)
		(1.18994413 0.19745964 0.00000000)
		(1.20670391 0.21046893 0.00000000)
		(1.22346369 0.22176685 0.00000000)
		(1.24022346 0.23126154 0.00000000)
		(1.25698324 0.23887580 0.00000000)
		(1.27374302 0.24454770 0.00000000)
		(1.29050279 0.24823114 0.00000000)
		(1.30726257 0.24989615 0.00000000)
		(1.32402235 0.24952921 0.00000000)
		(1.34078212 0.24713330 0.00000000)
		(1.35754190 0.24272789 0.00000000)
		(1.37430168 0.23634881 0.00000000)
		(1.39106145 0.22804792 0.00000000)
		(1.40782123 0.21789273 0.00000000)
		(1.42458101 0.20596581 0.00000000)
		(1.44134078 0.19236414 0.00000000)
		(1.45810056 0.17719832 0.00000000)
		(1.47486034 0.16059165 0.00000000)
		(1.49162011 0.14267919 0.00000000)
		(1.50837989 0.12360656 0.00000000)
		(1.52513966 0.10352887 0.00000000)
		(1.54189944 0.08260936 0.00000000)
		(1.55865922 0.06101814 0.00000000)
		(1.57541899 0.03893077 0.00000000)
		(1.59217877 0.01652684 0.00000000)
		(1.60893855 -0.00601147 0.00000000)
		(1.62569832 -0.02850090 0.00000000)
		(1.64245810 -0.05075858 0.00000000)
		(1.65921788 -0.07260354 0.00000000)
		(1.67597765 -0.09385814 0.00000000)
		(1.69273743 -0.11434956 0.00000000)
		(1.70949721 -0.13391117 0.00000000)
		(1.72625698 -0.15238393 0.00000000)
		(1.74301676 -0.16961763 0.00000000)
		(1.75977654 -0.18547212 0.00000000)
		(1.77653631 -0.19981851 0.00000000)
		(1.79329609 -0.21254013 0.00000000)
		(1.81005587 -0.22353353 0.00000000)
		(1.82681564 -0.23270934 0.00000000)
		(1.84357542 -0.23999295 0.00000000)
		(1.86033520 -0.24532511 0.00000000)
		(1.87709497 -0.24866249 0.00000000)
		(1.89385475 -0.24997794 0.00000000)
		(1.91061453 -0.24926077 0.00000000)
		(1.92737430 -0.24651681 0.00000000)
		(1.94413408 -0.24176836 0.00000000)
		(1.96089385 -0.23505405 0.00000000)
		(1.97765363 -0.22642846 0.00000000)
		(1.99441341 -0.21596174 0.00000000)
		(2.01117318 -0.20373898 0.00000000)
		(2.02793296 -0.18985958 0.00000000)
		(2.04469274 -0.17443639 0.00000000)
		(2.06145251 -0.15759482 0.00000000)
		(2.07821229 -0.13947182 0.00000000)
		(2.09497207 -0.12021474 0.00000000)
		(2.11173184 -0.09998017 0.00000000)
		(2.12849162 -0.07893264 0.00000000)
		(2.14525140 -0.05724329 0.00000000)
		(2.16201117 -0.03508848 0.00000000)
		(2.17877095 -0.01264837 0.00000000)
		(2.19553073 0.00989460 0.00000000)
		(2.21229050 0.03235711 0.00000000)
		(2.22905028 0.05455651 0.00000000)
		(2.24581006 0.07631231 0.00000000)
		(2.26256983 0.09744759 0.00000000)
		(2.27932961 0.11779051 0.00000000)
		(2.29608939 0.13717565 0.00000000)
		(2.31284916 0.15544538 0.00000000)
		(2.32960894 0.17245116 0.00000000)
		(2.34636872 0.18805470 0.00000000)
		(2.36312849 0.20212912 0.00000000)
		(2.37988827 0.21455999 0.00000000)
		(2.39664804 0.22524623 0.00000000)
		(2.41340782 0.23410095 0.00000000)
		(2.43016760 0.24105214 0.00000000)
		(2.44692737 0.24604328 0.00000000)
		(2.46368715 0.24903379 0.00000000)
		(2.48044693 0.24999936 0.00000000)
		(2.49720670 0.24893213 0.00000000)
		(2.51396648 0.24584078 0.00000000)
		(2.53072626 0.24075045 0.00000000)
		(2.54748603 0.23370253 0.00000000)
		(2.56424581 0.22475432 0.00000000)
		(2.58100559 0.21397858 0.00000000)
		(2.59776536 0.20146294 0.00000000)
		(2.61452514 0.18730917 0.00000000)
		(2.63128492 0.17163234 0.00000000)
		(2.64804469 0.15455993 0.00000000)
		(2.66480447 0.13623077 0.00000000)
		(2.68156425 0.11679388 0.00000000)
		(2.69832402 0.09640732 0.00000000)
		(2.71508380 0.07523685 0.00000000)
		(2.73184358 0.05345461 0.00000000)
		(2.74860335 0.03123773 0.00000000)
		(2.76536313 0.00876684 0.00000000)
		(2.78212291 -0.01377534 0.00000000)
		(2.79888268 -0.03620550 0.00000000)
		(2.81564246 -0.05834127 0.00000000)
		(2.83240223 -0.08000265 0.00000000)
		(2.84916201 -0.10101352 0.00000000)
		(2.86592179 -0.12120302 0.00000000)
		(2.88268156 -0.14040699 0.00000000)
		(2.89944134 -0.15846929 0.00000000)
		(2.91620112 -0.17524304 0.00000000)
		(2.93296089 -0.19059185 0.00000000)
		(2.95166480 -0.19911224 0.00000000)
		(2.97036872 -0.20673575 0.00000000)
		(2.98907263 -0.21346237 0.00000000)
		(3.00777654 -0.21929211 0.00000000)
		(3.02648045 -0.22422497 0.00000000)
		(3.04518436 -0.22826095 0.00000000)
		(3.06388827 -0.23140004 0.00000000)
		(3.08259218 -0.23364225 0.00000000)
		(3.10129609 -0.23498757 0.00000000)
		(3.12000000 -0.23543601 0.00000000)
		(3.14000000 -0.23543601 0.00000000)
		(3.16000000 -0.23543601 0.00000000)
		(3.18000000 -0.23543601 0.00000000)
		(3.20000000 -0.23543601 0.00000000)
		(3.22000000 -0.23543601 0.00000000)
		(3.24000000 -0.23543601 0.00000000)
		(3.26000000 -0.23543601 0.00000000)
		(3.28000000 -0.23543601 0.00000000)
		(3.30000000 -0.23543601 0.00000000)
		(3.32000000 -0.23543601 0.00000000)
		(3.34000000 -0.23543601 0.00000000)
		(3.36000000 -0.23543601 0.00000000)
		(3.38000000 -0.23543601 0.00000000)
		(3.40000000 -0.23543601 0.00000000)
		(3.42000000 -0.23543601 0.00000000)
		(3.44000000 -0.23543601 0.00000000)
		(3.46000000 -0.23543601 0.00000000)
		(3.48000000 -0.23543601 0.00000000)
		(3.50000000 -0.23543601 0.00000000)
		(3.52000000 -0.23543601 0.00000000)
		(3.54000000 -0.23543601 0.00000000)
		(3.56000000 -0.23543601 0.00000000)
		(3.58000000 -0.23543601 0.00000000)
		(3.60000000 -0.23543601 0.00000000)
		(3.62000000 -0.23543601 0.00000000)
		(3.64000000 -0.23543601 0.00000000)
		(3.66000000 -0.23543601 0.00000000)
		(3.68000000 -0.23543601 0.00000000)
		(3.70000000 -0.23543601 0.00000000)
		(3.72000000 -0.23543601 0.00000000)
		(3.74000000 -0.23543601 0.00000000)
		(3.76000000 -0.23543601 0.00000000)
		(3.78000000 -0.23543601 0.00000000)
		(3.80000000 -0.23543601 0.00000000)
		(3.82000000 -0.23543601 0.00000000)
		(3.84000000 -0.23543601 0.00000000)
		(3.86000000 -0.23543601 0.00000000)
		(3.88000000 -0.23543601 0.00000000)
		(3.90000000 -0.23543601 0.00000000)
		(3.92000000 -0.23543601 0.00000000)
		(3.94000000 -0.23543601 0.00000000)
		(3.96000000 -0.23543601 0.00000000)
		(3.98000000 -0.23543601 0.00000000)
		(4.00000000 -0.23543601 0.00000000)
	)
	polyLine 4 5
	(
		(-1.00000000 0.17745820 0.10000000)
		(-0.98000000 0.17745820 0.10000000)
		(-0.96000000 0.17745820 0.10000000)
		(-0.94000000 0.17745820 0.10000000)
		(-0.92000000 0.17745820 0.10000000)
		(-0.90000000 0.17745820 0.10000000)
		(-0.88000000 0.17745820 0.10000000)
		(-0.86000000 0.17745820 0.10000000)
		(-0.84000000 0.17745820 0.10000000)
		(-0.82000000 0.17745820 0.10000000)
		(-0.80000000 0.17745820 0.10000000)
		(-0.78000000 0.17745820 0.10000000)
		(-0.76000000 0.17745820 0.10000000)
		(-0.74000000 0.17745820 0.10000000)
		(-0.72000000 0.17745820 0.10000000)
		(-0.70000000 0.17745820 0.10000000)
		(-0.68000000 0.17745820 0.10000000)
		(-0.66000000 0.17745820 0.10000000)
		(-0.64000000 0.17745820 0.10000000)
		(-0.62000000 0.17745820 0.10000000)
		(-0.60000000 0.17745820 0.10000000)
		(-0.58000000 0.17745820 0.10000000)
		(-0.56000000 0.17745820 0.10000000)
		(-0.54000000 0.17745820 0.10000000)
		(-0.52000000 0.17745820 0.10000000)
		(-0.50000000 0.17745820 0.10000000)
		(-0.48000000 0.17745820 0.10000000)
		(-0.46000000 0.17745820 0.10000000)
		(-0.44000000 0.17745820 0.10000000)
		(-0.42000000 0.17745820 0.10000000)
		(-0.40000000 0.17745820 0.10000000)
		(-0.38000000 0.17745820 0.10000000)
		(-0.36000000 0.17745820 0.10000000)
		(-0.34000000 0.17745820 0.10000000)
		(-0.32000000 0.17745820 0.10000000)
		(-0.30000000 0.17745820 0.10000000)
		(-0.28000000 0.17745820 0.10000000)
		(-0.26000000 0.17745820 0.10000000)
		(-0.24000000 0.17745820 0.10000000)
		(-0.22000000 0.17745820 0.10000000)
		(-0.20000000 0.17745820 0.10000000)
		(-0.18000000 0.17745820 0.10000000)
		(-0.16000000 0.17745820 0.10000000)
		(-0.14000000 0.17745820 0.10000000)
		(-0.12000000 0.17745820 0.10000000)
		(-0.10000000 0.17745820 0.10000000)
		(-0.08162011 0.17804831 0.10000000)
		(-0.06324022 0.17981862 0.10000000)
		(-0.04486034 0.18276915 0.10000000)
		(-0.02648045 0.18689989 0.10000000)
		(-0.00810056 0.19221083 0.10000000)
		(0.01027933 0.19870199 0.10000000)
		(0.02865922 0.20637335 0.10000000)
		(0.04703911 0.21522493 0.10000000)
		(0.06541899 0.22525672 0.10000000)
		(0.08379888 0.23646871 0.10000000)
		(0.10055866 0.24281590 0.10000000)
		(0.11731844 0.24718870 0.10000000)
		(0.13407821 0.24955156 0.10000000)
		(0.15083799 0.24988526 0.10000000)
		(0.16759777 0.24818709 0.10000000)
		(0.18435754 0.24447086 0.10000000)
		(0.20111732 0.23876678 0.10000000)
		(0.21787709 0.23112124 0.10000000)
		(0.23463687 0.22159641 0.10000000)
		(0.25139665 0.21026973 0.10000000)
		(0.26815642 0.19723330 0.10000000)
		(0.28491620 0.18259312 0.10000000)
		(0.30167598 0.16646825 0.10000000)
		(0.31843575 0.14898978 0.10000000)
		(0.33519553 0.13029985 0.10000000)
		(0.35195531 0.11055042 0.10000000)
		(0.36871508 0.08990208 0.10000000)
		(0.38547486 0.06852273 0.10000000)
		(0.40223464 0.04658621 0.10000000)
		(0.41899441 0.02427088 0.10000000)
		(0.43575419 0.00175821 0.10000000)
		(0.45251397 -0.02076877 0.10000000)
		(0.46927374 -0.04312686 0.10000000)
		(0.48603352 -0.06513429 0.10000000)
		(0.50279330 -0.08661209 0.10000000)
		(0.51955307 -0.10738564 0.10000000)
		(0.53631285 -0.12728600 0.10000000)
		(0.55307263 -0.14615138 0.10000000)
		(0.56983240 -0.16382837 0.10000000)
		(0.58659218 -0.18017324 0.10000000)
		(0.60335196 -0.19505308 0.10000000)
		(0.62011173 -0.20834690 0.10000000)
		(0.63687151 -0.21994661 0.10000000)
		(0.65363128 -0.22975789 0.10000000)
		(0.67039106 -0.23770096 0.10000000)
		(0.68715084 -0.24371123 0.10000000)
		(0.70391061 -0.24773983 0.10000000)
		(0.72067039 -0.24975401 0.10000000)
		(0.73743017 -0.24973739 0.10000000)
		(0.75418994 -0.24769010 0.10000000)
		(0.77094972 -0.24362879 0.10000000)
		(0.78770950 -0.23758648 0.10000000)
		(0.80446927 -0.22961231 0.10000000)
		(0.82122905 -0.21977111 0.10000000)
		(0.83798883 -0.20814290 0.10000000)
		(0.85474860 -0.19482224 0.10000000)
		(0.87150838 -0.17991744 0.10000000)
		(0.88826816 -0.16354970 0.10000000)
		(0.90502793 -0.14585210 0.10000000)
		(0.92178771 -0.12696854 0.10000000)
		(0.93854749 -0.10705257 0.10000000)
		(0.95530726 -0.08626614 0.10000000)
		(0.97206704 -0.06477826 0.10000000)
		(0.98882682 -0.04276365 0.10000000)
		(1.00558659 -0.02040133 0.10000000)
		(1.02234637 0.00212689 0.10000000)
		(1.03910615 0.02463781 0.10000000)
		(1.05586592 0.04694839 0.10000000)
		(1.07262570 0.06887723 0.10000000)
		(1.08938547 0.09024601 0.10000000)
		(1.10614525 0.11088098 0.10000000)
		(1.12290503 0.13061436 0.10000000)
		(1.13966480 0.14928568 0.10000000)
		(1.15642458 0.16674313 0.10000000)
		(1.17318436 0.18284476 0.10000000)
		(1.18994413 0.19745964 0.10000000)
		(1.20670391 0.21046893 0.10000000)
		(1.22346369 0.22176685 0.10000000)
		(1.24022346 0.23126154 0.10000000)
		(1.25698324 0.23887580 0.10000000)
		(1.27374302 0.24454770 0.10000000)
		(1.29050279 0.24823114 0.10000000)
		(1.30726257 0.24989615 0.10000000)
		(1.32402235 0.24952921 0.10000000)
		(1.34078212 0.24713330 0.10000000)
		(1.35754190 0.24272789 0.10000000)
		(1.37430168 0.23634881 0.10000000)
		(1.39106145 0.22804792 0.10000000)
		(1.40782123 0.21789273 0.10000000)
		(1.42458101 0.20596581 0.10000000)
		(1.44134078 0.19236414 0.10000000)
		(1.45810056 0.17719832 0.10000000)
		(1.47486034 0.16059165 0.10000000)
		(1.49162011 0.14267919 0.10000000)
		(1.50837989 0.12360656 0.10000000)
		(1.52513966 0.10352887 0.10000000)
		(1.54189944 0.08260936 0.10000000)
		(1.55865922 0.06101814 0.10000000)
		(1.57541899 0.03893077 0.10000000)
		(1.59217877 0.01652684 0.10000000)
		(1.60893855 -0.00601147 0.10000000)
		(1.62569832 -0.02850090 0.10000000)
		(1.64245810 -0.05075858 0.10000000)
		(1.65921788 -0.07260354 0.10000000)
		(1.67597765 -0.09385814 0.10000000)
		(1.69273743 -0.11434956 0.10000000)
		(1.70949721 -0.13391117 0.10000000)
		(1.72625698 -0.15238393 0.10000000)
		(1.74301676 -0.16961763 0.10000000)
		(1.75977654 -0.18547212 0.10000000)
		(1.77653631 -0.19981851 0.10000000)
		(1.79329609 -0.21254013 0.10000000)
		(1.81005587 -0.22353353 0.10000000)
		(1.82681564 -0.23270934 0.10000000)
		(1.84357542 -0.23999295 0.10000000)
		(1.86033520 -0.24532511 0.10000000)
		(1.87709497 -0.24866249 0.10000000)
		(1.89385475 -0.24997794 0.10000000)
		(1.91061453 -0.24926077 0.10000000)
		(1.92737430 -0.24651681 0.10000000)
		(1.94413408 -0.24176836 0.10000000)
		(1.96089385 -0.23505405 0.10000000)
		(1.97765363 -0.22642846 0.10000000)
		(1.99441341 -0.21596174 0.10000000)
		(2.01117318 -0.20373898 0.10000000)
		(2.02793296 -0.18985958 0.10000000)
		(2.04469274 -0.17443639 0.10000000)
		(2.06145251 -0.15759482 0.10000000)
		(2.07821229 -0.13947182 0.10000000)
		(2.09497207 -0.12021474 0.10000000)
		(2.11173184 -0.09998017 0.10000000)
		(2.12849162 -0.07893264 0.10000000)
		(2.14525140 -0.05724329 0.10000000)
		(2.16201117 -0.03508848 0.10000000)
		(2.17877095 -0.01264837 0.10000000)
		(2.19553073 0.00989460 0.10000000)
		(2.21229050 0.03235711 0.10000000)
		(2.22905028 0.05455651 0.10000000)
		(2.24581006 0.07631231 0.10000000)
		(2.26256983 0.09744759 0.10000000)
		(2.27932961 0.11779051 0.10000000)
		(2.29608939 0.13717565 0.10000000)
		(2.31284916 0.15544538 0.10000000)
		(2.32960894 0.17245116 0.10000000)
		(2.34636872 0.18805470 0.10000000)
		(2.36312849 0.20212912 0.10000000)
		(2.37988827 0.21455999 0.10000000)
		(2.39664804 0.22524623 0.10000000)
		(2.41340782 0.23410095 0.10000000)
		(2.43016760 0.24105214 0.10000000)
		(2.44692737 0.24604328 0.10000000)
		(2.46368715 0.24903379 0.10000000)
		(2.48044693 0.24999936 0.10000000)
		(2.49720670 0.24893213 0.10000000)
		(2.51396648 0.24584078 0.10000000)
		(2.53072626 0.24075045 0.10000000)
		(2.54748603 0.23370253 0.10000000)
		(2.56424581 0.22475432 0.10000000)
		(2.58100559 0.21397858 0.10000000)
		(2.59776536 0.20146294 0.10000000)
		(2.61452514 0.18730917 0.10000000)
		(2.63128492 0.17163234 0.10000000)
		(2.64804469 0.15455993 0.10000000)
		(2.66480447 0.13623077 0.10000000)
		(2.68156425 0.11679388 0.10000000)
		(2.69832402 0.09640732 0.10000000)
		(2.71508380 0.07523685 0.10000000)
		(2.73184358 0.05345461 0.10000000)
		(2.74860335 0.03123773 0.10000000)
		(2.76536313 0.00876684 0.10000000)
		(2.78212291 -0.01377534 0.10000000)
		(2.79888268 -0.03620550 0.10000000)
		(2.81564246 -0.05834127 0.10000000)
		(2.83240223 -0.08000265 0.10000000)
		(2.84916201 -0.10101352 0.10000000)
		(2.86592179 -0.12120302 0.10000000)
		(2.88268156 -0.14040699 0.10000000)
		(2.89944134 -0.15846929 0.10000000)
		(2.91620112 -0.17524304 0.10000000)
		(2.93296089 -0.19059185 0.10000000)
		(2.95166480 -0.19911224 0.10000000)
		(2.97036872 -0.20673575 0.10000000)
		(2.98907263 -0.21346237 0.10000000)
		(3.00777654 -0.21929211 0.10000000)
		(3.02648045 -0.22422497 0.10000000)
		(3.04518436 -0.22826095 0.10000000)
		(3.06388827 -0.23140004 0.10000000)
		(3.08259218 -0.23364225 0.10000000)
		(3.10129609 -0.23498757 0.10000000)
		(3.12000000 -0.23543601 0.10000000)
		(3.14000000 -0.23543601 0.10000000)
		(3.16000000 -0.23543601 0.10000000)
		(3.18000000 -0.23543601 0.10000000)
		(3.20000000 -0.23543601 0.10000000)
		(3.22000000 -0.23543601 0.10000000)
		(3.24000000 -0.23543601 0.10000000)
		(3.26000000 -0.23543601 0.10000000)
		(3.28000000 -0.23543601 0.10000000)
		(3.30000000 -0.23543601 0.10000000)
		(3.32000000 -0.23543601 0.10000000)
		(3.34000000 -0.23543601 0.10000000)
		(3.36000000 -0.23543601 0.10000000)
		(3.38000000 -0.23543601 0.10000000)
		(3.40000000 -0.23543601 0.10000000)
		(3.42000000 -0.23543601 0.10000000)
		(3.44000000 -0.23543601 0.10000000)
		(3.46000000 -0.23543601 0.10000000)
		(3.48000000 -0.23543601 0.10000000)
		(3.50000000 -0.23543601 0.10000000)
		(3.52000000 -0.23543601 0.10000000)
		(3.54000000 -0.23543601 0.10000000)
		(3.56000000 -0.23543601 0.10000000)
		(3.58000000 -0.23543601 0.10000000)
		(3.60000000 -0.23543601 0.10000000)
		(3.62000000 -0.23543601 0.10000000)
		(3.64000000 -0.23543601 0.10000000)
		(3.66000000 -0.23543601 0.10000000)
		(3.68000000 -0.23543601 0.10000000)
		(3.70000000 -0.23543601 0.10000000)
		(3.72000000 -0.23543601 0.10000000)
		(3.74000000 -0.23543601 0.10000000)
		(3.76000000 -0.23543601 0.10000000)
		(3.78000000 -0.23543601 0.10000000)
		(3.80000000 -0.23543601 0.10000000)
		(3.82000000 -0.23543601 0.10000000)
		(3.84000000 -0.23543601 0.10000000)
		(3.86000000 -0.23543601 0.10000000)
		(3.88000000 -0.23543601 0.10000000)
		(3.90000000 -0.23543601 0.10000000)
		(3.92000000 -0.23543601 0.10000000)
		(3.94000000 -0.23543601 0.10000000)
		(3.96000000 -0.23543601 0.10000000)
		(3.98000000 -0.23543601 0.10000000)
		(4.00000000 -0.23543601 0.10000000)
	)
	polyLine 3 2
	(
		(-1.00000000 0.67745820 0.00000000)
		(-0.98000000 0.67544607 0.00000000)
		(-0.96000000 0.67343394 0.00000000)
		(-0.94000000 0.67142180 0.00000000)
		(-0.92000000 0.66940967 0.00000000)
		(-0.90000000 0.66739754 0.00000000)
		(-0.88000000 0.66538541 0.00000000)
		(-0.86000000 0.66337327 0.00000000)
		(-0.84000000 0.66136114 0.00000000)
		(-0.82000000 0.65934901 0.00000000)
		(-0.80000000 0.65733687 0.00000000)
		(-0.78000000 0.65532474 0.00000000)
		(-0.76000000 0.65331261 0.00000000)
		(-0.74000000 0.65130047 0.00000000)
		(-0.72000000 0.64928834 0.00000000)
		(-0.70000000 0.64727621 0.00000000)
		(-0.68000000 0.64526407 0.00000000)
		(-0.66000000 0.64325194 0.00000000)
		(-0.64000000 0.64123981 0.00000000)
		(-0.62000000 0.63922768 0.00000000)
		(-0.60000000 0.63721554 0.00000000)
		(-0.58000000 0.63520341 0.00000000)
		(-0.56000000 0.63319128 0.00000000)
		(-0.54000000 0.63117914 0.00000000)
		(-0.52000000 0.62916701 0.00000000)
		(-0.50000000 0.62715488 0.00000000)
		(-0.48000000 0.62514274 0.00000000)
		(-0.46000000 0.62313061 0.00000000)
		(-0.44000000 0.62111848 0.00000000)
		(-0.42000000 0.61910634 0.00000000)
		(-0.40000000 0.61709421 0.00000000)
		(-0.38000000 0.61508208 0.00000000)
		(-0.36000000 0.61306994 0.00000000)
		(-0.34000000 0.61105781 0.00000000)
		(-0.32000000 0.60904568 0.00000000)
		(-0.30000000 0.60703355 0.00000000)
		(-0.28000000 0.60502141 0.00000000)
		(-0.26000000 0.60300928 0.00000000)
		(-0.24000000 0.60099715 0.00000000)
		(-0.22000000 0.59898501 0.00000000)
		(-0.20000000 0.59697288 0.00000000)
		(-0.18000000 0.59496075 0.00000000)
		(-0.16000000 0.59294861 0.00000000)
		(-0.14000000 0.59093648 0.00000000)
		(-0.12000000 0.58892435 0.00000000)
		(-0.10000000 0.58691221 0.00000000)
		(-0.08162011 0.58533044 0.00000000)
		(-0.06324022 0.58450409 0.00000000)
		(-0.04486034 0.58443315 0.00000000)
		(-0.02648045 0.58511764 0.00000000)
		(-0.00810056 0.58655754 0.00000000)
		(0.01027933 0.58875287 0.00000000)
		(0.02865922 0.59170361 0.00000000)
		(0.04703911 0.59540978 0.00000000)
		(0.06541899 0.59987137 0.00000000)
		(0.08379888 0.60508837 0.00000000)
		(0.10055866 0.60790911 0.00000000)
		(0.11731844 0.60985241 0.00000000)
		(0.13407821 0.61090248 0.00000000)
		(0.15083799 0.61105078 0.00000000)
		(0.16759777 0.61029610 0.00000000)
		(0.18435754 0.60864458 0.00000000)
		(0.20111732 0.60610965 0.00000000)
		(0.21787709 0.60271192 0.00000000)
		(0.23463687 0.59847901 0.00000000)
		(0.25139665 0.59344536 0.00000000)
		(0.26815642 0.58765187 0.00000000)
		(0.28491620 0.58114568 0.00000000)
		(0.30167598 0.57397967 0.00000000)
		(0.31843575 0.56621211 0.00000000)
		(0.33519553 0.55790617 0.00000000)
		(0.35195531 0.54912939 0.00000000)
		(0.36871508 0.53995312 0.00000000)
		(0.38547486 0.53045199 0.00000000)
		(0.40223464 0.52070324 0.00000000)
		(0.41899441 0.51078615 0.00000000)
		(0.43575419 0.50078136 0.00000000)
		(0.45251397 0.49077021 0.00000000)
		(0.46927374 0.48083412 0.00000000)
		(0.48603352 0.47105386 0.00000000)
		(0.50279330 0.46150897 0.00000000)
		(0.51955307 0.45227706 0.00000000)
		(0.53631285 0.44343320 0.00000000)
		(0.55307263 0.43504929 0.00000000)
		(0.56983240 0.42719351 0.00000000)
		(0.58659218 0.41992974 0.00000000)
		(0.60335196 0.41331703 0.00000000)
		(0.62011173 0.40740916 0.00000000)
		(0.63687151 0.40225417 0.00000000)
		(0.65363128 0.39789397 0.00000000)
		(0.67039106 0.39436401 0.00000000)
		(0.68715084 0.39169300 0.00000000)
		(0.70391061 0.38990266 0.00000000)
		(0.72067039 0.38900755 0.00000000)
		(0.73743017 0.38901494 0.00000000)
		(0.75418994 0.38992477 0.00000000)
		(0.77094972 0.39172964 0.00000000)
		(0.78770950 0.39441489 0.00000000)
		(0.80446927 0.39795866 0.00000000)
		(0.82122905 0.40233216 0.00000000)
		(0.83798883 0.40749982 0.00000000)
		(0.85474860 0.41341962 0.00000000)
		(0.87150838 0.42004341 0.00000000)
		(0.88826816 0.42731736 0.00000000)
		(0.90502793 0.43518230 0.00000000)
		(0.92178771 0.44357428 0.00000000)
		(0.93854749 0.45242508 0.00000000)
		(0.95530726 0.46166272 0.00000000)
		(0.97206704 0.47121208 0.00000000)
		(0.98882682 0.48099553 0.00000000)
		(1.00558659 0.49093351 0.00000000)
		(1.02234637 0.50094520 0.00000000)
		(1.03910615 0.51094922 0.00000000)
		(1.05586592 0.52086420 0.00000000)
		(1.07262570 0.53060953 0.00000000)
		(1.08938547 0.54010597 0.00000000)
		(1.10614525 0.54927629 0.00000000)
		(1.12290503 0.55804595 0.00000000)
		(1.13966480 0.56634361 0.00000000)
		(1.15642458 0.57410183 0.00000000)
		(1.17318436 0.58125751 0.00000000)
		(1.18994413 0.58775246 0.00000000)
		(1.20670391 0.59353388 0.00000000)
		(1.22346369 0.59855476 0.00000000)
		(1.24022346 0.60277427 0.00000000)
		(1.25698324 0.60615810 0.00000000)
		(1.27374302 0.60867873 0.00000000)
		(1.29050279 0.61031568 0.00000000)
		(1.30726257 0.61105562 0.00000000)
		(1.32402235 0.61089255 0.00000000)
		(1.34078212 0.60982779 0.00000000)
		(1.35754190 0.60786999 0.00000000)
		(1.37430168 0.60503508 0.00000000)
		(1.39106145 0.60134611 0.00000000)
		(1.40782123 0.59683307 0.00000000)
		(1.42458101 0.59153267 0.00000000)
		(1.44134078 0.58548799 0.00000000)
		(1.45810056 0.57874819 0.00000000)
		(1.47486034 0.57136807 0.00000000)
		(1.49162011 0.56340764 0.00000000)
		(1.50837989 0.55493163 0.00000000)
		(1.52513966 0.54600896 0.00000000)
		(1.54189944 0.53671219 0.00000000)
		(1.55865922 0.52711689 0.00000000)
		(1.57541899 0.51730111 0.00000000)
		(1.59217877 0.50734465 0.00000000)
		(1.60893855 0.49732846 0.00000000)
		(1.62569832 0.48733400 0.00000000)
		(1.64245810 0.47744253 0.00000000)
		(1.65921788 0.46773447 0.00000000)
		(1.67597765 0.45828878 0.00000000)
		(1.69273743 0.44918225 0.00000000)
		(1.70949721 0.44048893 0.00000000)
		(1.72625698 0.43227950 0.00000000)
		(1.74301676 0.42462073 0.00000000)
		(1.75977654 0.41757487 0.00000000)
		(1.77653631 0.41119924 0.00000000)
		(1.79329609 0.40554566 0.00000000)
		(1.81005587 0.40066011 0.00000000)
		(1.82681564 0.39658232 0.00000000)
		(1.84357542 0.39334544 0.00000000)
		(1.86033520 0.39097578 0.00000000)
		(1.87709497 0.38949263 0.00000000)
		(1.89385475 0.38890803 0.00000000)
		(1.91061453 0.38922675 0.00000000)
		(1.92737430 0.39044619 0.00000000)
		(1.94413408 0.39255643 0.00000000)
		(1.96089385 0.39554032 0.00000000)
		(1.97765363 0.39937359 0.00000000)
		(1.99441341 0.40402508 0.00000000)
		(2.01117318 0.40945695 0.00000000)
		(2.02793296 0.41562506 0.00000000)
		(2.04469274 0.42247923 0.00000000)
		(2.06145251 0.42996374 0.00000000)
		(2.07821229 0.43801774 0.00000000)
		(2.09497207 0.44657572 0.00000000)
		(2.11173184 0.45556810 0.00000000)
		(2.12849162 0.46492178 0.00000000)
		(2.14525140 0.47456068 0.00000000)
		(2.16201117 0.48440643 0.00000000)
		(2.17877095 0.49437898 0.00000000)
		(2.19553073 0.50439723 0.00000000)
		(2.21229050 0.51437973 0.00000000)
		(2.22905028 0.52424530 0.00000000)
		(2.24581006 0.53391373 0.00000000)
		(2.26256983 0.54330640 0.00000000)
		(2.27932961 0.55234694 0.00000000)
		(2.29608939 0.56096183 0.00000000)
		(2.31284916 0.56908103 0.00000000)
		(2.32960894 0.57663852 0.00000000)
		(2.34636872 0.58357284 0.00000000)
		(2.36312849 0.58982761 0.00000000)
		(2.37988827 0.59535198 0.00000000)
		(2.39664804 0.60010102 0.00000000)
		(2.41340782 0.60403612 0.00000000)
		(2.43016760 0.60712528 0.00000000)
		(2.44692737 0.60934338 0.00000000)
		(2.46368715 0.61067238 0.00000000)
		(2.48044693 0.61110149 0.00000000)
		(2.49720670 0.61062720 0.00000000)
		(2.51396648 0.60925339 0.00000000)
		(2.53072626 0.60699121 0.00000000)