/*--------------------------------*- C++ -*----------------------------------*\\
/*--------------------------------*- C++ -*----------------------------------*\\
| =========                 |                                                 |
| \\\\      /  F ield         | OpenFOAM: The Open Source CFD Toolbox           |
|  \\\\    /   O peration     | Version:  v2012                                 |
|   \\\\  /    A nd           | Website:  www.openfoam.com                      |
|    \\\\/     M anipulation  |                                                 |
\\*---------------------------------------------------------------------------*/
FoamFile
{
    version     2.0;
    format      ascii;
    class       dictionary;
    object      blockMeshDict;
}
// * * * * * * * * * * * * * * * * * * * * * * * * * * * * * * * * * * * * * //

scale   0.01;

xmin -1;
xmax 5;
ymin 0;
ymax 0.5;
zmin 0;
zmax 0.1;

vertices
(
    (-1.00000000 -0.24288063 0.00000000)
    (4.00000000 0.11196639 0.00000000)
    (4.00000000 0.61196639 0.00000000)
    (-1.00000000 0.25711937 0.00000000)
    (-1.00000000 -0.24288063 0.10000000)
    (4.00000000 0.11196639 0.10000000)
    (4.00000000 0.61196639 0.10000000)
    (-1.00000000 0.25711937 0.10000000)
);

blocks
(
    hex (0 1 2 3 4 5 6 7) (200 20 1) simpleGrading (1 1 1)
);

edges
(
	polyLine 0 1
	(
		(-1.00000000 -0.24288063 0.00000000)
		(-0.98000000 -0.24288063 0.00000000)
		(-0.96000000 -0.24288063 0.00000000)
		(-0.94000000 -0.24288063 0.00000000)
		(-0.92000000 -0.24288063 0.00000000)
		(-0.90000000 -0.24288063 0.00000000)
		(-0.88000000 -0.24288063 0.00000000)
		(-0.86000000 -0.24288063 0.00000000)
		(-0.84000000 -0.24288063 0.00000000)
		(-0.82000000 -0.24288063 0.00000000)
		(-0.80000000 -0.24288063 0.00000000)
		(-0.78000000 -0.24288063 0.00000000)
		(-0.76000000 -0.24288063 0.00000000)
		(-0.74000000 -0.24288063 0.00000000)
		(-0.72000000 -0.24288063 0.00000000)
		(-0.70000000 -0.24288063 0.00000000)
		(-0.68000000 -0.24288063 0.00000000)
		(-0.66000000 -0.24288063 0.00000000)
		(-0.64000000 -0.24288063 0.00000000)
		(-0.62000000 -0.24288063 0.00000000)
		(-0.60000000 -0.24288063 0.00000000)
		(-0.58000000 -0.24288063 0.00000000)
		(-0.56000000 -0.24288063 0.00000000)
		(-0.54000000 -0.24288063 0.00000000)
		(-0.52000000 -0.24288063 0.00000000)
		(-0.50000000 -0.24288063 0.00000000)
		(-0.48000000 -0.24288063 0.00000000)
		(-0.46000000 -0.24288063 0.00000000)
		(-0.44000000 -0.24288063 0.00000000)
		(-0.42000000 -0.24288063 0.00000000)
		(-0.40000000 -0.24288063 0.00000000)
		(-0.38000000 -0.24288063 0.00000000)
		(-0.36000000 -0.24288063 0.00000000)
		(-0.34000000 -0.24288063 0.00000000)
		(-0.32000000 -0.24288063 0.00000000)
		(-0.30000000 -0.24288063 0.00000000)
		(-0.28000000 -0.24288063 0.00000000)
		(-0.26000000 -0.24288063 0.00000000)
		(-0.24000000 -0.24288063 0.00000000)
		(-0.22000000 -0.24288063 0.00000000)
		(-0.20000000 -0.24288063 0.00000000)
		(-0.18000000 -0.24288063 0.00000000)
		(-0.16000000 -0.24288063 0.00000000)
		(-0.14000000 -0.24288063 0.00000000)
		(-0.12000000 -0.24288063 0.00000000)
		(-0.10000000 -0.24288063 0.00000000)
		(-0.08162011 -0.24294707 0.00000000)
		(-0.06324022 -0.24314642 0.00000000)
		(-0.04486034 -0.24347866 0.00000000)
		(-0.02648045 -0.24394379 0.00000000)
		(-0.00810056 -0.24454182 0.00000000)
		(0.01027933 -0.24527275 0.00000000)
		(0.02865922 -0.24613657 0.00000000)
		(0.04703911 -0.24713329 0.00000000)
		(0.06541899 -0.24826290 0.00000000)
		(0.08379888 -0.24952541 0.00000000)
		(0.10055866 -0.24814797 0.00000000)
		(0.11731844 -0.24587240 0.00000000)
		(0.13407821 -0.24270694 0.00000000)
		(0.15083799 -0.23866304 0.00000000)
		(0.16759777 -0.23375534 0.00000000)
		(0.18435754 -0.22800161 0.00000000)
		(0.20111732 -0.22142266 0.00000000)
		(0.21787709 -0.21404231 0.00000000)
		(0.23463687 -0.20588727 0.00000000)
		(0.25139665 -0.19698705 0.00000000)
		(0.26815642 -0.18737388 0.00000000)
		(0.28491620 -0.17708253 0.00000000)
		(0.30167598 -0.16615027 0.00000000)
		(0.31843575 -0.15461665 0.00000000)
		(0.33519553 -0.14252343 0.00000000)
		(0.35195531 -0.12991436 0.00000000)
		(0.36871508 -0.11683509 0.00000000)
		(0.38547486 -0.10333296 0.00000000)
		(0.40223464 -0.08945683 0.00000000)
		(0.41899441 -0.07525693 0.00000000)
		(0.43575419 -0.06078465 0.00000000)
		(0.45251397 -0.04609237 0.00000000)
		(0.46927374 -0.03123326 0.00000000)
		(0.48603352 -0.01626111 0.00000000)
		(0.50279330 -0.00123011 0.00000000)
		(0.51955307 0.01380535 0.00000000)
		(0.53631285 0.02879084 0.00000000)
		(0.55307263 0.04367212 0.00000000)
		(0.56983240 0.05839534 0.00000000)
		(0.58659218 0.07290721 0.00000000)
		(0.60335196 0.08715521 0.00000000)
		(0.62011173 0.10108776 0.00000000)
		(0.63687151 0.11465444 0.00000000)
		(0.65363128 0.12780615 0.00000000)
		(0.67039106 0.14049528 0.00000000)
		(0.68715084 0.15267592 0.00000000)
		(0.70391061 0.16430397 0.00000000)
		(0.72067039 0.17533736 0.00000000)
		(0.73743017 0.18573614 0.00000000)
		(0.75418994 0.19546267 0.00000000)
		(0.77094972 0.20448177 0.00000000)
		(0.78770950 0.21276078 0.00000000)
		(0.80446927 0.22026973 0.00000000)
		(0.82122905 0.22698146 0.00000000)
		(0.83798883 0.23287166 0.00000000)
		(0.85474860 0.23791903 0.00000000)
		(0.87150838 0.24210529 0.00000000)
		(0.88826816 0.24541529 0.00000000)
		(0.90502793 0.24783705 0.00000000)
		(0.92178771 0.24936181 0.00000000)
		(0.93854749 0.24998404 0.00000000)
		(0.95530726 0.24970150 0.00000000)
		(0.97206704 0.24851521 0.00000000)
		(0.98882682 0.24642946 0.00000000)
		(1.00558659 0.24345180 0.00000000)
		(1.02234637 0.23959301 0.00000000)
		(1.03910615 0.23486705 0.00000000)
		(1.05586592 0.22929103 0.00000000)
		(1.07262570 0.22288513 0.00000000)
		(1.08938547 0.21567253 0.00000000)
		(1.10614525 0.20767935 0.00000000)
		(1.12290503 0.19893450 0.00000000)
		(1.13966480 0.18946965 0.00000000)
		(1.15642458 0.17931904 0.00000000)
		(1.17318436 0.16851941 0.00000000)
		(1.18994413 0.15710986 0.00000000)
		(1.20670391 0.14513168 0.00000000)
		(1.22346369 0.13262822 0.00000000)
		(1.24022346 0.11964473 0.00000000)
		(1.25698324 0.10622821 0.00000000)
		(1.27374302 0.09242721 0.00000000)
		(1.29050279 0.07829169 0.00000000)
		(1.30726257 0.06387281 0.00000000)
		(1.32402235 0.04922275 0.00000000)
		(1.34078212 0.03439453 0.00000000)
		(1.35754190 0.01944183 0.00000000)
		(1.37430168 0.00441877 0.00000000)
		(1.39106145 -0.01062029 0.00000000)
		(1.40782123 -0.02562091 0.00000000)
		(1.42458101 -0.04052880 0.00000000)
		(1.44134078 -0.05529001 0.00000000)
		(1.45810056 -0.06985110 0.00000000)
		(1.47486034 -0.08415937 0.00000000)
		(1.49162011 -0.09816305 0.00000000)
		(1.50837989 -0.11181144 0.00000000)
		(1.52513966 -0.12505515 0.00000000)
		(1.54189944 -0.13784624 0.00000000)
		(1.55865922 -0.15013842 0.00000000)
		(1.57541899 -0.16188720 0.00000000)
		(1.59217877 -0.17305006 0.00000000)
		(1.60893855 -0.18358660 0.00000000)
		(1.62569832 -0.19345867 0.00000000)
		(1.64245810 -0.20263055 0.00000000)
		(1.65921788 -0.21106904 0.00000000)
		(1.67597765 -0.21874361 0.00000000)
		(1.69273743 -0.22562647 0.00000000)
		(1.70949721 -0.23169271 0.00000000)
		(1.72625698 -0.23692039 0.00000000)
		(1.74301676 -0.24129056 0.00000000)
		(1.75977654 -0.24478743 0.00000000)
		(1.77653631 -0.24739833 0.00000000)
		(1.79329609 -0.24911382 0.00000000)
		(1.81005587 -0.24992768 0.00000000)
		(1.82681564 -0.24983697 0.00000000)
		(1.84357542 -0.24884202 0.00000000)
		(1.86033520 -0.24694642 0.00000000)
		(1.87709497 -0.24415705 0.00000000)
		(1.89385475 -0.24048399 0.00000000)
		(1.91061453 -0.23594054 0.00000000)
		(1.92737430 -0.23054314 0.00000000)
		(1.94413408 -0.22431133 0.00000000)
		(1.96089385 -0.21726767 0.00000000)
		(1.97765363 -0.20943764 0.00000000)
		(1.99441341 -0.20084958 0.00000000)
		(2.01117318 -0.19153459 0.00000000)
		(2.02793296 -0.18152637 0.00000000)
		(2.04469274 -0.17086114 0.00000000)
		(2.06145251 -0.15957752 0.00000000)
		(2.07821229 -0.14771632 0.00000000)
		(2.09497207 -0.13532050 0.00000000)
		(2.11173184 -0.12243490 0.00000000)
		(2.12849162 -0.10910618 0.00000000)
		(2.14525140 -0.09538256 0.00000000)
		(2.16201117 -0.08131372 0.00000000)
		(2.17877095 -0.06695058 0.00000000)
		(2.19553073 -0.05234512 0.00000000)
		(2.21229050 -0.03755021 0.00000000)
		(2.22905028 -0.02261939 0.00000000)
		(2.24581006 -0.00760671 0.00000000)
		(2.26256983 0.00743351 0.00000000)
		(2.27932961 0.02244682 0.00000000)
		(2.29608939 0.03737889 0.00000000)
		(2.31284916 0.05217567 0.00000000)
		(2.32960894 0.06678362 0.00000000)
		(2.34636872 0.08114985 0.00000000)
		(2.36312849 0.09522237 0.00000000)
		(2.37988827 0.10895025 0.00000000)
		(2.39664804 0.12228380 0.00000000)
		(2.41340782 0.13517477 0.00000000)
		(2.43016760 0.14757650 0.00000000)
		(2.44692737 0.15944410 0.00000000)
		(2.46368715 0.17073461 0.00000000)
		(2.48044693 0.18140718 0.00000000)
		(2.49720670 0.19142318 0.00000000)
		(2.51396648 0.20074636 0.00000000)
		(2.53072626 0.20934297 0.00000000)
		(2.54748603 0.21718190 0.00000000)
		(2.56424581 0.22423477 0.00000000)
		(2.58100559 0.23047607 0.00000000)
		(2.59776536 0.23588319 0.00000000)
		(2.61452514 0.24043658 0.00000000)
		(2.63128492 0.24411975 0.00000000)
		(2.64804469 0.24691936 0.00000000)
		(2.66480447 0.24882530 0.00000000)
		(2.68156425 0.24983065 0.00000000)
		(2.69832402 0.24993179 0.00000000)
		(2.71508380 0.24912834 0.00000000)
		(2.73184358 0.24742321 0.00000000)
		(2.74860335 0.24482257 0.00000000)
		(2.76536313 0.24133584 0.00000000)
		(2.78212291 0.23697564 0.00000000)
		(2.79888268 0.23175774 0.00000000)
		(2.81564246 0.22570104 0.00000000)
		(2.83240223 0.21882745 0.00000000)
		(2.84916201 0.21116185 0.00000000)
		(2.86592179 0.20273199 0.00000000)
		(2.88268156 0.19356837 0.00000000)
		(2.89944134 0.18370416 0.00000000)
		(2.91620112 0.17317507 0.00000000)
		(2.93296089 0.16201920 0.00000000)
		(2.95166480 0.15250917 0.00000000)
		(2.97036872 0.14400019 0.00000000)
		(2.98907263 0.13649227 0.00000000)
		(3.00777654 0.12998540 0.00000000)
		(3.02648045 0.12447959 0.00000000)
		(3.04518436 0.11997484 0.00000000)
		(3.06388827 0.11647114 0.00000000)
		(3.08259218 0.11396850 0.00000000)
		(3.10129609 0.11246692 0.00000000)
		(3.12000000 0.11196639 0.00000000)
		(3.14000000 0.11196639 0.00000000)
		(3.16000000 0.11196639 0.00000000)
		(3.18000000 0.11196639 0.00000000)
		(3.20000000 0.11196639 0.00000000)
		(3.22000000 0.11196639 0.00000000)
		(3.24000000 0.11196639 0.00000000)
		(3.26000000 0.11196639 0.00000000)
		(3.28000000 0.11196639 0.00000000)
		(3.30000000 0.11196639 0.00000000)
		(3.32000000 0.11196639 0.00000000)
		(3.34000000 0.11196639 0.00000000)
		(3.36000000 0.11196639 0.00000000)
		(3.38000000 0.11196639 0.00000000)
		(3.40000000 0.11196639 0.00000000)
		(3.42000000 0.11196639 0.00000000)
		(3.44000000 0.11196639 0.00000000)
		(3.46000000 0.11196639 0.00000000)
		(3.48000000 0.11196639 0.00000000)
		(3.50000000 0.11196639 0.00000000)
		(3.52000000 0.11196639 0.00000000)
		(3.54000000 0.11196639 0.00000000)
		(3.56000000 0.11196639 0.00000000)
		(3.58000000 0.11196639 0.00000000)
		(3.60000000 0.11196639 0.00000000)
		(3.62000000 0.11196639 0.00000000)
		(3.64000000 0.11196639 0.00000000)
		(3.66000000 0.11196639 0.00000000)
		(3.68000000 0.11196639 0.00000000)
		(3.70000000 0.11196639 0.00000000)
		(3.72000000 0.11196639 0.00000000)
		(3.74000000 0.11196639 0.00000000)
		(3.76000000 0.11196639 0.00000000)
		(3.78000000 0.11196639 0.00000000)
		(3.80000000 0.11196639 0.00000000)
		(3.82000000 0.11196639 0.00000000)
		(3.84000000 0.11196639 0.00000000)
		(3.86000000 0.11196639 0.00000000)
		(3.88000000 0.11196639 0.00000000)
		(3.90000000 0.11196639 0.00000000)
		(3.92000000 0.11196639 0.00000000)
		(3.94000000 0.11196639 0.00000000)
		(3.96000000 0.11196639 0.00000000)
		(3.98000000 0.11196639 0.00000000)
		(4.00000000 0.11196639 0.00000000)
	)
	polyLine 4 5
	(
		(-1.00000000 -0.24288063 0.10000000)
		(-0.98000000 -0.24288063 0.10000000)
		(-0.96000000 -0.24288063 0.10000000)
		(-0.94000000 -0.24288063 0.10000000)
		(-0.92000000 -0.24288063 0.10000000)
		(-0.90000000 -0.24288063 0.10000000)
		(-0.88000000 -0.24288063 0.10000000)
		(-0.86000000 -0.24288063 0.10000000)
		(-0.84000000 -0.24288063 0.10000000)
		(-0.82000000 -0.24288063 0.10000000)
		(-0.80000000 -0.24288063 0.10000000)
		(-0.78000000 -0.24288063 0.10000000)
		(-0.76000000 -0.24288063 0.10000000)
		(-0.74000000 -0.24288063 0.10000000)
		(-0.72000000 -0.24288063 0.10000000)
		(-0.70000000 -0.24288063 0.10000000)
		(-0.68000000 -0.24288063 0.10000000)
		(-0.66000000 -0.24288063 0.10000000)
		(-0.64000000 -0.24288063 0.10000000)
		(-0.62000000 -0.24288063 0.10000000)
		(-0.60000000 -0.24288063 0.10000000)
		(-0.58000000 -0.24288063 0.10000000)
		(-0.56000000 -0.24288063 0.10000000)
		(-0.54000000 -0.24288063 0.10000000)
		(-0.52000000 -0.24288063 0.10000000)
		(-0.50000000 -0.24288063 0.10000000)
		(-0.48000000 -0.24288063 0.10000000)
		(-0.46000000 -0.24288063 0.10000000)
		(-0.44000000 -0.24288063 0.10000000)
		(-0.42000000 -0.24288063 0.10000000)
		(-0.40000000 -0.24288063 0.10000000)
		(-0.38000000 -0.24288063 0.10000000)
		(-0.36000000 -0.24288063 0.10000000)
		(-0.34000000 -0.24288063 0.10000000)
		(-0.32000000 -0.24288063 0.10000000)
		(-0.30000000 -0.24288063 0.10000000)
		(-0.28000000 -0.24288063 0.10000000)
		(-0.26000000 -0.24288063 0.10000000)
		(-0.24000000 -0.24288063 0.10000000)
		(-0.22000000 -0.24288063 0.10000000)
		(-0.20000000 -0.24288063 0.10000000)
		(-0.18000000 -0.24288063 0.10000000)
		(-0.16000000 -0.24288063 0.10000000)
		(-0.14000000 -0.24288063 0.10000000)
		(-0.12000000 -0.24288063 0.10000000)
		(-0.10000000 -0.24288063 0.10000000)
		(-0.08162011 -0.24294707 0.10000000)
		(-0.06324022 -0.24314642 0.10000000)
		(-0.04486034 -0.24347866 0.10000000)
		(-0.02648045 -0.24394379 0.10000000)
		(-0.00810056 -0.24454182 0.10000000)
		(0.01027933 -0.24527275 0.10000000)
		(0.02865922 -0.24613657 0.10000000)
		(0.04703911 -0.24713329 0.10000000)
		(0.06541899 -0.24826290 0.10000000)
		(0.08379888 -0.24952541 0.10000000)
		(0.10055866 -0.24814797 0.10000000)
		(0.11731844 -0.24587240 0.10000000)
		(0.13407821 -0.24270694 0.10000000)
		(0.15083799 -0.23866304 0.10000000)
		(0.16759777 -0.23375534 0.10000000)
		(0.18435754 -0.22800161 0.10000000)
		(0.20111732 -0.22142266 0.10000000)
		(0.21787709 -0.21404231 0.10000000)
		(0.23463687 -0.20588727 0.10000000)
		(0.25139665 -0.19698705 0.10000000)
		(0.26815642 -0.18737388 0.10000000)
		(0.28491620 -0.17708253 0.10000000)
		(0.30167598 -0.16615027 0.10000000)
		(0.31843575 -0.15461665 0.10000000)
		(0.33519553 -0.14252343 0.10000000)
		(0.35195531 -0.12991436 0.10000000)
		(0.36871508 -0.11683509 0.10000000)
		(0.38547486 -0.10333296 0.10000000)
		(0.40223464 -0.08945683 0.10000000)
		(0.41899441 -0.07525693 0.10000000)
		(0.43575419 -0.06078465 0.10000000)
		(0.45251397 -0.04609237 0.10000000)
		(0.46927374 -0.03123326 0.10000000)
		(0.48603352 -0.01626111 0.10000000)
		(0.50279330 -0.00123011 0.10000000)
		(0.51955307 0.01380535 0.10000000)
		(0.53631285 0.02879084 0.10000000)
		(0.55307263 0.04367212 0.10000000)
		(0.56983240 0.05839534 0.10000000)
		(0.58659218 0.07290721 0.10000000)
		(0.60335196 0.08715521 0.10000000)
		(0.62011173 0.10108776 0.10000000)
		(0.63687151 0.11465444 0.10000000)
		(0.65363128 0.12780615 0.10000000)
		(0.67039106 0.14049528 0.10000000)
		(0.68715084 0.15267592 0.10000000)
		(0.70391061 0.16430397 0.10000000)
		(0.72067039 0.17533736 0.10000000)
		(0.73743017 0.18573614 0.10000000)
		(0.75418994 0.19546267 0.10000000)
		(0.77094972 0.20448177 0.10000000)
		(0.78770950 0.21276078 0.10000000)
		(0.80446927 0.22026973 0.10000000)
		(0.82122905 0.22698146 0.10000000)
		(0.83798883 0.23287166 0.10000000)
		(0.85474860 0.23791903 0.10000000)
		(0.87150838 0.24210529 0.10000000)
		(0.88826816 0.24541529 0.10000000)
		(0.90502793 0.24783705 0.10000000)
		(0.92178771 0.24936181 0.10000000)
		(0.93854749 0.24998404 0.10000000)
		(0.95530726 0.24970150 0.10000000)
		(0.97206704 0.24851521 0.10000000)
		(0.98882682 0.24642946 0.10000000)
		(1.00558659 0.24345180 0.10000000)
		(1.02234637 0.23959301 0.10000000)
		(1.03910615 0.23486705 0.10000000)
		(1.05586592 0.22929103 0.10000000)
		(1.07262570 0.22288513 0.10000000)
		(1.08938547 0.21567253 0.10000000)
		(1.10614525 0.20767935 0.10000000)
		(1.12290503 0.19893450 0.10000000)
		(1.13966480 0.18946965 0.10000000)
		(1.15642458 0.17931904 0.10000000)
		(1.17318436 0.16851941 0.10000000)
		(1.18994413 0.15710986 0.10000000)
		(1.20670391 0.14513168 0.10000000)
		(1.22346369 0.13262822 0.10000000)
		(1.24022346 0.11964473 0.10000000)
		(1.25698324 0.10622821 0.10000000)
		(1.27374302 0.09242721 0.10000000)
		(1.29050279 0.07829169 0.10000000)
		(1.30726257 0.06387281 0.10000000)
		(1.32402235 0.04922275 0.10000000)
		(1.34078212 0.03439453 0.10000000)
		(1.35754190 0.01944183 0.10000000)
		(1.37430168 0.00441877 0.10000000)
		(1.39106145 -0.01062029 0.10000000)
		(1.40782123 -0.02562091 0.10000000)
		(1.42458101 -0.04052880 0.10000000)
		(1.44134078 -0.05529001 0.10000000)
		(1.45810056 -0.06985110 0.10000000)
		(1.47486034 -0.08415937 0.10000000)
		(1.49162011 -0.09816305 0.10000000)
		(1.50837989 -0.11181144 0.10000000)
		(1.52513966 -0.12505515 0.10000000)
		(1.54189944 -0.13784624 0.10000000)
		(1.55865922 -0.15013842 0.10000000)
		(1.57541899 -0.16188720 0.10000000)
		(1.59217877 -0.17305006 0.10000000)
		(1.60893855 -0.18358660 0.10000000)
		(1.62569832 -0.19345867 0.10000000)
		(1.64245810 -0.20263055 0.10000000)
		(1.65921788 -0.21106904 0.10000000)
		(1.67597765 -0.21874361 0.10000000)
		(1.69273743 -0.22562647 0.10000000)
		(1.70949721 -0.23169271 0.10000000)
		(1.72625698 -0.23692039 0.10000000)
		(1.74301676 -0.24129056 0.10000000)
		(1.75977654 -0.24478743 0.10000000)
		(1.77653631 -0.24739833 0.10000000)
		(1.79329609 -0.24911382 0.10000000)
		(1.81005587 -0.24992768 0.10000000)
		(1.82681564 -0.24983697 0.10000000)
		(1.84357542 -0.24884202 0.10000000)
		(1.86033520 -0.24694642 0.10000000)
		(1.87709497 -0.24415705 0.10000000)
		(1.89385475 -0.24048399 0.10000000)
		(1.91061453 -0.23594054 0.10000000)
		(1.92737430 -0.23054314 0.10000000)
		(1.94413408 -0.22431133 0.10000000)
		(1.96089385 -0.21726767 0.10000000)
		(1.97765363 -0.20943764 0.10000000)
		(1.99441341 -0.20084958 0.10000000)
		(2.01117318 -0.19153459 0.10000000)
		(2.02793296 -0.18152637 0.10000000)
		(2.04469274 -0.17086114 0.10000000)
		(2.06145251 -0.15957752 0.10000000)
		(2.07821229 -0.14771632 0.10000000)
		(2.09497207 -0.13532050 0.10000000)
		(2.11173184 -0.12243490 0.10000000)
		(2.12849162 -0.10910618 0.10000000)
		(2.14525140 -0.09538256 0.10000000)
		(2.16201117 -0.08131372 0.10000000)
		(2.17877095 -0.06695058 0.10000000)
		(2.19553073 -0.05234512 0.10000000)
		(2.21229050 -0.03755021 0.10000000)
		(2.22905028 -0.02261939 0.10000000)
		(2.24581006 -0.00760671 0.10000000)
		(2.26256983 0.00743351 0.10000000)
		(2.27932961 0.02244682 0.10000000)
		(2.29608939 0.03737889 0.10000000)
		(2.31284916 0.05217567 0.10000000)
		(2.32960894 0.06678362 0.10000000)
		(2.34636872 0.08114985 0.10000000)
		(2.36312849 0.09522237 0.10000000)
		(2.37988827 0.10895025 0.10000000)
		(2.39664804 0.12228380 0.10000000)
		(2.41340782 0.13517477 0.10000000)
		(2.43016760 0.14757650 0.10000000)
		(2.44692737 0.15944410 0.10000000)
		(2.46368715 0.17073461 0.10000000)
		(2.48044693 0.18140718 0.10000000)
		(2.49720670 0.19142318 0.10000000)
		(2.51396648 0.20074636 0.10000000)
		(2.53072626 0.20934297 0.10000000)
		(2.54748603 0.21718190 0.10000000)
		(2.56424581 0.22423477 0.10000000)
		(2.58100559 0.23047607 0.10000000)
		(2.59776536 0.23588319 0.10000000)
		(2.61452514 0.24043658 0.10000000)
		(2.63128492 0.24411975 0.10000000)
		(2.64804469 0.24691936 0.10000000)
		(2.66480447 0.24882530 0.10000000)
		(2.68156425 0.24983065 0.10000000)
		(2.69832402 0.24993179 0.10000000)
		(2.71508380 0.24912834 0.10000000)
		(2.73184358 0.24742321 0.10000000)
		(2.74860335 0.24482257 0.10000000)
		(2.76536313 0.24133584 0.10000000)
		(2.78212291 0.23697564 0.10000000)
		(2.79888268 0.23175774 0.10000000)
		(2.81564246 0.22570104 0.10000000)
		(2.83240223 0.21882745 0.10000000)
		(2.84916201 0.21116185 0.10000000)
		(2.86592179 0.20273199 0.10000000)
		(2.88268156 0.19356837 0.10000000)
		(2.89944134 0.18370416 0.10000000)
		(2.91620112 0.17317507 0.10000000)
		(2.93296089 0.16201920 0.10000000)
		(2.95166480 0.15250917 0.10000000)
		(2.97036872 0.14400019 0.10000000)
		(2.98907263 0.13649227 0.10000000)
		(3.00777654 0.12998540 0.10000000)
		(3.02648045 0.12447959 0.10000000)
		(3.04518436 0.11997484 0.10000000)
		(3.06388827 0.11647114 0.10000000)
		(3.08259218 0.11396850 0.10000000)
		(3.10129609 0.11246692 0.10000000)
		(3.12000000 0.11196639 0.10000000)
		(3.14000000 0.11196639 0.10000000)
		(3.16000000 0.11196639 0.10000000)
		(3.18000000 0.11196639 0.10000000)
		(3.20000000 0.11196639 0.10000000)
		(3.22000000 0.11196639 0.10000000)
		(3.24000000 0.11196639 0.10000000)
		(3.26000000 0.11196639 0.10000000)
		(3.28000000 0.11196639 0.10000000)
		(3.30000000 0.11196639 0.10000000)
		(3.32000000 0.11196639 0.10000000)
		(3.34000000 0.11196639 0.10000000)
		(3.36000000 0.11196639 0.10000000)
		(3.38000000 0.11196639 0.10000000)
		(3.40000000 0.11196639 0.10000000)
		(3.42000000 0.11196639 0.10000000)
		(3.44000000 0.11196639 0.10000000)
		(3.46000000 0.11196639 0.10000000)
		(3.48000000 0.11196639 0.10000000)
		(3.50000000 0.11196639 0.10000000)
		(3.52000000 0.11196639 0.10000000)
		(3.54000000 0.11196639 0.10000000)
		(3.56000000 0.11196639 0.10000000)
		(3.58000000 0.11196639 0.10000000)
		(3.60000000 0.11196639 0.10000000)
		(3.62000000 0.11196639 0.10000000)
		(3.64000000 0.11196639 0.10000000)
		(3.66000000 0.11196639 0.10000000)
		(3.68000000 0.11196639 0.10000000)
		(3.70000000 0.11196639 0.10000000)
		(3.72000000 0.11196639 0.10000000)
		(3.74000000 0.11196639 0.10000000)
		(3.76000000 0.11196639 0.10000000)
		(3.78000000 0.11196639 0.10000000)
		(3.80000000 0.11196639 0.10000000)
		(3.82000000 0.11196639 0.10000000)
		(3.84000000 0.11196639 0.10000000)
		(3.86000000 0.11196639 0.10000000)
		(3.88000000 0.11196639 0.10000000)
		(3.90000000 0.11196639 0.10000000)
		(3.92000000 0.11196639 0.10000000)
		(3.94000000 0.11196639 0.10000000)
		(3.96000000 0.11196639 0.10000000)
		(3.98000000 0.11196639 0.10000000)
		(4.00000000 0.11196639 0.10000000)
	)
	polyLine 3 2
	(
		(-1.00000000 0.25711937 0.00000000)
		(-0.98000000 0.25908162 0.00000000)
		(-0.96000000 0.26104387 0.00000000)
		(-0.94000000 0.26300611 0.00000000)
		(-0.92000000 0.26496836 0.00000000)
		(-0.90000000 0.26693061 0.00000000)
		(-0.88000000 0.26889285 0.00000000)
		(-0.86000000 0.27085510 0.00000000)
		(-0.84000000 0.27281735 0.00000000)
		(-0.82000000 0.27477959 0.00000000)
		(-0.80000000 0.27674184 0.00000000)
		(-0.78000000 0.27870408 0.00000000)
		(-0.76000000 0.28066633 0.00000000)
		(-0.74000000 0.28262858 0.00000000)
		(-0.72000000 0.28459082 0.00000000)
		(-0.70000000 0.28655307 0.00000000)
		(-0.68000000 0.28851532 0.00000000)
		(-0.66000000 0.29047756 0.00000000)
		(-0.64000000 0.29243981 0.00000000)
		(-0.62000000 0.29440206 0.00000000)
		(-0.60000000 0.29636430 0.00000000)
		(-0.58000000 0.29832655 0.00000000)
		(-0.56000000 0.30028879 0.00000000)
		(-0.54000000 0.30225104 0.00000000)
		(-0.52000000 0.30421329 0.00000000)
		(-0.50000000 0.30617553 0.00000000)
		(-0.48000000 0.30813778 0.00000000)
		(-0.46000000 0.31010003 0.00000000)
		(-0.44000000 0.31206227 0.00000000)
		(-0.42000000 0.31402452 0.00000000)
		(-0.40000000 0.31598677 0.00000000)
		(-0.38000000 0.31794901 0.00000000)
		(-0.36000000 0.31991126 0.00000000)
		(-0.34000000 0.32187350 0.00000000)
		(-0.32000000 0.32383575 0.00000000)
		(-0.30000000 0.32579800 0.00000000)
		(-0.28000000 0.32776024 0.00000000)
		(-0.26000000 0.32972249 0.00000000)
		(-0.24000000 0.33168474 0.00000000)
		(-0.22000000 0.33364698 0.00000000)
		(-0.20000000 0.33560923 0.00000000)
		(-0.18000000 0.33757148 0.00000000)
		(-0.16000000 0.33953372 0.00000000)
		(-0.14000000 0.34149597 0.00000000)
		(-0.12000000 0.34345821 0.00000000)
		(-0.10000000 0.34542046 0.00000000)
		(-0.08162011 0.34681867 0.00000000)
		(-0.06324022 0.34799138 0.00000000)
		(-0.04486034 0.34893859 0.00000000)
		(-0.02648045 0.34966030 0.00000000)
		(-0.00810056 0.35015652 0.00000000)
		(0.01027933 0.35042724 0.00000000)
		(0.02865922 0.35047247 0.00000000)
		(0.04703911 0.35029220 0.00000000)
		(0.06541899 0.34988643 0.00000000)
		(0.08379888 0.34925516 0.00000000)
		(0.10055866 0.35008731 0.00000000)
		(0.11731844 0.35146204 0.00000000)
		(0.13407821 0.35337437 0.00000000)
		(0.15083799 0.35581740 0.00000000)
		(0.16759777 0.35878227 0.00000000)
		(0.18435754 0.36225825 0.00000000)
		(0.20111732 0.36623277 0.00000000)
		(0.21787709 0.37069143 0.00000000)
		(0.23463687 0.37561811 0.00000000)
		(0.25139665 0.38099496 0.00000000)
		(0.26815642 0.38680253 0.00000000)
		(0.28491620 0.39301980 0.00000000)
		(0.30167598 0.39962427 0.00000000)
		(0.31843575 0.40659203 0.00000000)
		(0.33519553 0.41389786 0.00000000)
		(0.35195531 0.42151533 0.00000000)
		(0.36871508 0.42941686 0.00000000)
		(0.38547486 0.43757385 0.00000000)
		(0.40223464 0.44595678 0.00000000)
		(0.41899441 0.45453532 0.00000000)
		(0.43575419 0.46327840 0.00000000)
		(0.45251397 0.47215439 0.00000000)
		(0.46927374 0.48113117 0.00000000)
		(0.48603352 0.49017624 0.00000000)
		(0.50279330 0.49925686 0.00000000)
		(0.51955307 0.50834017 0.00000000)
		(0.53631285 0.51739330 0.00000000)
		(0.55307263 0.52638347 0.00000000)
		(0.56983240 0.53527816 0.00000000)
		(0.58659218 0.54404516 0.00000000)
		(0.60335196 0.55265275 0.00000000)
		(0.62011173 0.56106976 0.00000000)
		(0.63687151 0.56926575 0.00000000)
		(0.65363128 0.57721104 0.00000000)
		(0.67039106 0.58487688 0.00000000)
		(0.68715084 0.59223553 0.00000000)
		(0.70391061 0.59926034 0.00000000)
		(0.72067039 0.60592589 0.00000000)
		(0.73743017 0.61220807 0.00000000)
		(0.75418994 0.61808413 0.00000000)
		(0.77094972 0.62353280 0.00000000)
		(0.78770950 0.62853436 0.00000000)
		(0.80446927 0.63307072 0.00000000)
		(0.82122905 0.63712545 0.00000000)
		(0.83798883 0.64068388 0.00000000)
		(0.85474860 0.64373312 0.00000000)
		(0.87150838 0.64626215 0.00000000)
		(0.88826816 0.64826181 0.00000000)
		(0.90502793 0.64972486 0.00000000)
		(0.92178771 0.65064601 0.00000000)
		(0.93854749 0.65102191 0.00000000)
		(0.95530726 0.65085122 0.00000000)
		(0.97206704 0.65013455 0.00000000)
		(0.98882682 0.64887450 0.00000000)
		(1.00558659 0.64707561 0.00000000)
		(1.02234637 0.64474442 0.00000000)
		(1.03910615 0.64188934 0.00000000)
		(1.05586592 0.63852072 0.00000000)
		(1.07262570 0.63465075 0.00000000)
		(1.08938547 0.63029343 0.00000000)
		(1.10614525 0.62546454 0.00000000)
		(1.12290503 0.62018155 0.00000000)
		(1.13966480 0.61446358 0.00000000)
		(1.15642458 0.60833133 0.00000000)
		(1.17318436 0.60180700 0.00000000)
		(1.18994413 0.59491419 0.00000000)
		(1.20670391 0.58767785 0.00000000)
		(1.22346369 0.58012418 0.00000000)
		(1.24022346 0.57228052 0.00000000)
		(1.25698324 0.56417525 0.00000000)
		(1.27374302 0.55583770 0.00000000)
		(1.29050279 0.54729806 0.00000000)
		(1.30726257 0.53858724 0.00000000)
		(1.32402235 0.52973675 0.00000000)
		(1.34078212 0.52077864 0.00000000)
		(1.35754190 0.51174532 0.00000000)
		(1.37430168 0.50266949 0.00000000)
		(1.39106145 0.49358400 0.00000000)
		(1.40782123 0.48452173 0.00000000)
		(1.42458101 0.47551549 0.00000000)
		(1.44134078 0.46659786 0.00000000)
		(1.45810056 0.45780112 0.00000000)
		(1.47486034 0.44915712 0.00000000)
		(1.49162011 0.44069713 0.00000000)
		(1.50837989 0.43245178 0.00000000)
		(1.52513966 0.42445091 0.00000000)
		(1.54189944 0.41672347 0.00000000)
		(1.55865922 0.40929744 0.00000000)
		(1.57541899 0.40219970 0.00000000)
		(1.59217877 0.39545592 0.00000000)
		(1.60893855 0.38909053 0.00000000)
		(1.62569832 0.38312655 0.00000000)
		(1.64245810 0.37758557 0.00000000)
		(1.65921788 0.37248766 0.00000000)
		(1.67597765 0.36785125 0.00000000)
		(1.69273743 0.36369313 0.00000000)
		(1.70949721 0.36002836 0.00000000)
		(1.72625698 0.35687018 0.00000000)
		(1.74301676 0.35423004 0.00000000)
		(1.75977654 0.35211749 0.00000000)
		(1.77653631 0.35054018 0.00000000)
		(1.79329609 0.34950381 0.00000000)
		(1.81005587 0.34901214 0.00000000)
		(1.82681564 0.34906694 0.00000000)
		(1.84357542 0.34966801 0.00000000)
		(1.86033520 0.35081319 0.00000000)
		(1.87709497 0.35249833 0.00000000)
		(1.89385475 0.35471732 0.00000000)
		(1.91061453 0.35746214 0.00000000)
		(1.92737430 0.36072284 0.00000000)
		(1.94413408 0.36448764 0.00000000)
		(1.96089385 0.36874291 0.00000000)
		(1.97765363 0.37347323 0.00000000)
		(1.99441341 0.37866150 0.00000000)
		(2.01117318 0.38428893 0.00000000)
		(2.02793296 0.39033516 0.00000000)
		(2.04469274 0.39677830 0.00000000)
		(2.06145251 0.40359504 0.00000000)
		(2.07821229 0.41076070 0.00000000)
		(2.09497207 0.41824934 0.00000000)
		(2.11173184 0.42603387 0.00000000)
		(2.12849162 0.43408610 0.00000000)
		(2.14525140 0.44237690 0.00000000)
		(2.16201117 0.45087625 0.00000000)
		(2.17877095 0.45955340 0.00000000)
		(2.19553073 0.46837694 0.00000000)
		(2.21229050 0.47731493 0.00000000)
		(2.22905028 0.48633503 0.00000000)
		(2.24581006 0.49540459 0.00000000)
		(2.26256983 0.50449078 0.00000000)
		(2.27932961 0.51356071 0.00000000)
		(2.29608939 0.52258157 0.00000000)
		(2.31284916 0.53152069 0.00000000)
		(2.32960894 0.54034573 0.00000000)
		(2.34636872 0.54902475 0.00000000)
		(2.36312849 0.55752633 0.00000000)
		(2.37988827 0.56581970 0.00000000)
		(2.39664804 0.57387485 0.00000000)
		(2.41340782 0.58166262 0.00000000)
		(2.43016760 0.58915483 0.00000000)
		(2.44692737 0.59632436 0.00000000)
		(2.46368715 0.60314526 0.00000000)
		(2.48044693 0.60959284 0.00000000)
		(2.49720670 0.61564376 0.00000000)
		(2.51396648 0.62127614 0.00000000)
		(2.53072626 0.62646958 0.00000000)