/*--------------------------------*- C++ -*----------------------------------*\\
/*--------------------------------*- C++ -*----------------------------------*\\
| =========                 |                                                 |
| \\\\      /  F ield         | OpenFOAM: The Open Source CFD Toolbox           |
|  \\\\    /   O peration     | Version:  v2012                                 |
|   \\\\  /    A nd           | Website:  www.openfoam.com                      |
|    \\\\/     M anipulation  |                                                 |
\\*---------------------------------------------------------------------------*/
FoamFile
{
    version     2.0;
    format      ascii;
    class       dictionary;
    object      blockMeshDict;
}
// * * * * * * * * * * * * * * * * * * * * * * * * * * * * * * * * * * * * * //

scale   0.01;

xmin -1;
xmax 5;
ymin 0;
ymax 0.5;
zmin 0;
zmax 0.1;

vertices
(
    (-1.00000000 -0.23760149 0.00000000)
    (4.00000000 0.06478248 0.00000000)
    (4.00000000 0.56478248 0.00000000)
    (-1.00000000 0.26239851 0.00000000)
    (-1.00000000 -0.23760149 0.10000000)
    (4.00000000 0.06478248 0.10000000)
    (4.00000000 0.56478248 0.10000000)
    (-1.00000000 0.26239851 0.10000000)
);

blocks
(
    hex (0 1 2 3 4 5 6 7) (200 20 1) simpleGrading (1 1 1)
);

edges
(
	polyLine 0 1
	(
		(-1.00000000 -0.23760149 0.00000000)
		(-0.98000000 -0.23760149 0.00000000)
		(-0.96000000 -0.23760149 0.00000000)
		(-0.94000000 -0.23760149 0.00000000)
		(-0.92000000 -0.23760149 0.00000000)
		(-0.90000000 -0.23760149 0.00000000)
		(-0.88000000 -0.23760149 0.00000000)
		(-0.86000000 -0.23760149 0.00000000)
		(-0.84000000 -0.23760149 0.00000000)
		(-0.82000000 -0.23760149 0.00000000)
		(-0.80000000 -0.23760149 0.00000000)
		(-0.78000000 -0.23760149 0.00000000)
		(-0.76000000 -0.23760149 0.00000000)
		(-0.74000000 -0.23760149 0.00000000)
		(-0.72000000 -0.23760149 0.00000000)
		(-0.70000000 -0.23760149 0.00000000)
		(-0.68000000 -0.23760149 0.00000000)
		(-0.66000000 -0.23760149 0.00000000)
		(-0.64000000 -0.23760149 0.00000000)
		(-0.62000000 -0.23760149 0.00000000)
		(-0.60000000 -0.23760149 0.00000000)
		(-0.58000000 -0.23760149 0.00000000)
		(-0.56000000 -0.23760149 0.00000000)
		(-0.54000000 -0.23760149 0.00000000)
		(-0.52000000 -0.23760149 0.00000000)
		(-0.50000000 -0.23760149 0.00000000)
		(-0.48000000 -0.23760149 0.00000000)
		(-0.46000000 -0.23760149 0.00000000)
		(-0.44000000 -0.23760149 0.00000000)
		(-0.42000000 -0.23760149 0.00000000)
		(-0.40000000 -0.23760149 0.00000000)
		(-0.38000000 -0.23760149 0.00000000)
		(-0.36000000 -0.23760149 0.00000000)
		(-0.34000000 -0.23760149 0.00000000)
		(-0.32000000 -0.23760149 0.00000000)
		(-0.30000000 -0.23760149 0.00000000)
		(-0.28000000 -0.23760149 0.00000000)
		(-0.26000000 -0.23760149 0.00000000)
		(-0.24000000 -0.23760149 0.00000000)
		(-0.22000000 -0.23760149 0.00000000)
		(-0.20000000 -0.23760149 0.00000000)
		(-0.18000000 -0.23760149 0.00000000)
		(-0.16000000 -0.23760149 0.00000000)
		(-0.14000000 -0.23760149 0.00000000)
		(-0.12000000 -0.23760149 0.00000000)
		(-0.10000000 -0.23760149 0.00000000)
		(-0.08162011 -0.23772541 0.00000000)
		(-0.06324022 -0.23809714 0.00000000)
		(-0.04486034 -0.23871671 0.00000000)
		(-0.02648045 -0.23958410 0.00000000)
		(-0.00810056 -0.24069931 0.00000000)
		(0.01027933 -0.24206235 0.00000000)
		(0.02865922 -0.24367322 0.00000000)
		(0.04703911 -0.24553191 0.00000000)
		(0.06541899 -0.24763843 0.00000000)
		(0.08379888 -0.24999277 0.00000000)
		(0.10055866 -0.24963392 0.00000000)
		(0.11731844 -0.24832411 0.00000000)
		(0.13407821 -0.24606833 0.00000000)
		(0.15083799 -0.24287518 0.00000000)
		(0.16759777 -0.23875682 0.00000000)
		(0.18435754 -0.23372893 0.00000000)
		(0.20111732 -0.22781068 0.00000000)
		(0.21787709 -0.22102460 0.00000000)
		(0.23463687 -0.21339654 0.00000000)
		(0.25139665 -0.20495557 0.00000000)
		(0.26815642 -0.19573385 0.00000000)
		(0.28491620 -0.18576649 0.00000000)
		(0.30167598 -0.17509147 0.00000000)
		(0.31843575 -0.16374945 0.00000000)
		(0.33519553 -0.15178364 0.00000000)
		(0.35195531 -0.13923963 0.00000000)
		(0.36871508 -0.12616520 0.00000000)
		(0.38547486 -0.11261015 0.00000000)
		(0.40223464 -0.09862613 0.00000000)
		(0.41899441 -0.08426640 0.00000000)
		(0.43575419 -0.06958566 0.00000000)
		(0.45251397 -0.05463984 0.00000000)
		(0.46927374 -0.03948587 0.00000000)
		(0.48603352 -0.02418149 0.00000000)
		(0.50279330 -0.00878499 0.00000000)
		(0.51955307 0.00664497 0.00000000)
		(0.53631285 0.02204963 0.00000000)
		(0.55307263 0.03737028 0.00000000)
		(0.56983240 0.05254858 0.00000000)
		(0.58659218 0.06752670 0.00000000)
		(0.60335196 0.08224758 0.00000000)
		(0.62011173 0.09665514 0.00000000)
		(0.63687151 0.11069451 0.00000000)
		(0.65363128 0.12431220 0.00000000)
		(0.67039106 0.13745632 0.00000000)
		(0.68715084 0.15007683 0.00000000)
		(0.70391061 0.16212562 0.00000000)
		(0.72067039 0.17355682 0.00000000)
		(0.73743017 0.18432686 0.00000000)
		(0.75418994 0.19439473 0.00000000)
		(0.77094972 0.20372207 0.00000000)
		(0.78770950 0.21227335 0.00000000)
		(0.80446927 0.22001599 0.00000000)
		(0.82122905 0.22692050 0.00000000)
		(0.83798883 0.23296058 0.00000000)
		(0.85474860 0.23811321 0.00000000)
		(0.87150838 0.24235878 0.00000000)
		(0.88826816 0.24568109 0.00000000)
		(0.90502793 0.24806751 0.00000000)
		(0.92178771 0.24950894 0.00000000)
		(0.93854749 0.24999989 0.00000000)
		(0.95530726 0.24953848 0.00000000)
		(0.97206704 0.24812648 0.00000000)
		(0.98882682 0.24576926 0.00000000)
		(1.00558659 0.24247581 0.00000000)
		(1.02234637 0.23825866 0.00000000)
		(1.03910615 0.23313389 0.00000000)
		(1.05586592 0.22712102 0.00000000)
		(1.07262570 0.22024295 0.00000000)
		(1.08938547 0.21252589 0.00000000)
		(1.10614525 0.20399922 0.00000000)
		(1.12290503 0.19469544 0.00000000)
		(1.13966480 0.18464999 0.00000000)
		(1.15642458 0.17390112 0.00000000)
		(1.17318436 0.16248980 0.00000000)
		(1.18994413 0.15045949 0.00000000)
		(1.20670391 0.13785601 0.00000000)
		(1.22346369 0.12472738 0.00000000)
		(1.24022346 0.11112362 0.00000000)
		(1.25698324 0.09709654 0.00000000)
		(1.27374302 0.08269958 0.00000000)
		(1.29050279 0.06798758 0.00000000)
		(1.30726257 0.05301659 0.00000000)
		(1.32402235 0.03784364 0.00000000)
		(1.34078212 0.02252653 0.00000000)
		(1.35754190 0.00712360 0.00000000)
		(1.37430168 -0.00830646 0.00000000)
		(1.39106145 -0.02370489 0.00000000)
		(1.40782123 -0.03901300 0.00000000)
		(1.42458101 -0.05417251 0.00000000)
		(1.44134078 -0.06912564 0.00000000)
		(1.45810056 -0.08381545 0.00000000)
		(1.47486034 -0.09818598 0.00000000)
		(1.49162011 -0.11218247 0.00000000)
		(1.50837989 -0.12575161 0.00000000)
		(1.52513966 -0.13884171 0.00000000)
		(1.54189944 -0.15140291 0.00000000)
		(1.55865922 -0.16338735 0.00000000)
		(1.57541899 -0.17474938 0.00000000)
		(1.59217877 -0.18544572 0.00000000)
		(1.60893855 -0.19543562 0.00000000)
		(1.62569832 -0.20468103 0.00000000)
		(1.64245810 -0.21314672 0.00000000)
		(1.65921788 -0.22080045 0.00000000)
		(1.67597765 -0.22761305 0.00000000)
		(1.69273743 -0.23355859 0.00000000)
		(1.70949721 -0.23861441 0.00000000)
		(1.72625698 -0.24276124 0.00000000)
		(1.74301676 -0.24598330 0.00000000)
		(1.75977654 -0.24826831 0.00000000)
		(1.77653631 -0.24960756 0.00000000)
		(1.79329609 -0.24999595 0.00000000)
		(1.81005587 -0.24943201 0.00000000)
		(1.82681564 -0.24791787 0.00000000)
		(1.84357542 -0.24545932 0.00000000)
		(1.86033520 -0.24206571 0.00000000)
		(1.87709497 -0.23774997 0.00000000)
		(1.89385475 -0.23252855 0.00000000)
		(1.91061453 -0.22642132 0.00000000)
		(1.92737430 -0.21945157 0.00000000)
		(1.94413408 -0.21164584 0.00000000)
		(1.96089385 -0.20303385 0.00000000)
		(1.97765363 -0.19364843 0.00000000)
		(1.99441341 -0.18352533 0.00000000)
		(2.01117318 -0.17270310 0.00000000)
		(2.02793296 -0.16122297 0.00000000)
		(2.04469274 -0.14912868 0.00000000)
		(2.06145251 -0.13646629 0.00000000)
		(2.07821229 -0.12328405 0.00000000)
		(2.09497207 -0.10963217 0.00000000)
		(2.11173184 -0.09556266 0.00000000)
		(2.12849162 -0.08112911 0.00000000)
		(2.14525140 -0.06638650 0.00000000)
		(2.16201117 -0.05139100 0.00000000)
		(2.17877095 -0.03619973 0.00000000)
		(2.19553073 -0.02087056 0.00000000)
		(2.21229050 -0.00546189 0.00000000)
		(2.22905028 0.00996759 0.00000000)
		(2.24581006 0.02535910 0.00000000)
		(2.26256983 0.04065400 0.00000000)
		(2.27932961 0.05579404 0.00000000)
		(2.29608939 0.07072154 0.00000000)
		(2.31284916 0.08537963 0.00000000)
		(2.32960894 0.09971247 0.00000000)
		(2.34636872 0.11366546 0.00000000)
		(2.36312849 0.12718546 0.00000000)
		(2.37988827 0.14022096 0.00000000)
		(2.39664804 0.15272229 0.00000000)
		(2.41340782 0.16464185 0.00000000)
		(2.43016760 0.17593421 0.00000000)
		(2.44692737 0.18655638 0.00000000)
		(2.46368715 0.19646787 0.00000000)
		(2.48044693 0.20563093 0.00000000)
		(2.49720670 0.21401066 0.00000000)
		(2.51396648 0.22157514 0.00000000)
		(2.53072626 0.22829554 0.00000000)
		(2.54748603 0.23414628 0.00000000)
		(2.56424581 0.23910505 0.00000000)
		(2.58100559 0.24315298 0.00000000)
		(2.59776536 0.24627463 0.00000000)
		(2.61452514 0.24845813 0.00000000)
		(2.63128492 0.24969514 0.00000000)
		(2.64804469 0.24998096 0.00000000)
		(2.66480447 0.24931451 0.00000000)
		(2.68156425 0.24769831 0.00000000)
		(2.69832402 0.24513853 0.00000000)
		(2.71508380 0.24164491 0.00000000)
		(2.73184358 0.23723077 0.00000000)
		(2.74860335 0.23191292 0.00000000)
		(2.76536313 0.22571162 0.00000000)
		(2.78212291 0.21865049 0.00000000)
		(2.79888268 0.21075643 0.00000000)
		(2.81564246 0.20205951 0.00000000)
		(2.83240223 0.19259286 0.00000000)
		(2.84916201 0.18239255 0.00000000)
		(2.86592179 0.17149743 0.00000000)
		(2.88268156 0.15994901 0.00000000)
		(2.89944134 0.14779127 0.00000000)
		(2.91620112 0.13507054 0.00000000)
		(2.93296089 0.12183527 0.00000000)
		(2.95166480 0.11099524 0.00000000)
		(2.97036872 0.10129627 0.00000000)
		(2.98907263 0.09273835 0.00000000)
		(3.00777654 0.08532149 0.00000000)
		(3.02648045 0.07904568 0.00000000)
		(3.04518436 0.07391093 0.00000000)
		(3.06388827 0.06991723 0.00000000)
		(3.08259218 0.06706459 0.00000000)
		(3.10129609 0.06535301 0.00000000)
		(3.12000000 0.06478248 0.00000000)
		(3.14000000 0.06478248 0.00000000)
		(3.16000000 0.06478248 0.00000000)
		(3.18000000 0.06478248 0.00000000)
		(3.20000000 0.06478248 0.00000000)
		(3.22000000 0.06478248 0.00000000)
		(3.24000000 0.06478248 0.00000000)
		(3.26000000 0.06478248 0.00000000)
		(3.28000000 0.06478248 0.00000000)
		(3.30000000 0.06478248 0.00000000)
		(3.32000000 0.06478248 0.00000000)
		(3.34000000 0.06478248 0.00000000)
		(3.36000000 0.06478248 0.00000000)
		(3.38000000 0.06478248 0.00000000)
		(3.40000000 0.06478248 0.00000000)
		(3.42000000 0.06478248 0.00000000)
		(3.44000000 0.06478248 0.00000000)
		(3.46000000 0.06478248 0.00000000)
		(3.48000000 0.06478248 0.00000000)
		(3.50000000 0.06478248 0.00000000)
		(3.52000000 0.06478248 0.00000000)
		(3.54000000 0.06478248 0.00000000)
		(3.56000000 0.06478248 0.00000000)
		(3.58000000 0.06478248 0.00000000)
		(3.60000000 0.06478248 0.00000000)
		(3.62000000 0.06478248 0.00000000)
		(3.64000000 0.06478248 0.00000000)
		(3.66000000 0.06478248 0.00000000)
		(3.68000000 0.06478248 0.00000000)
		(3.70000000 0.06478248 0.00000000)
		(3.72000000 0.06478248 0.00000000)
		(3.74000000 0.06478248 0.00000000)
		(3.76000000 0.06478248 0.00000000)
		(3.78000000 0.06478248 0.00000000)
		(3.80000000 0.06478248 0.00000000)
		(3.82000000 0.06478248 0.00000000)
		(3.84000000 0.06478248 0.00000000)
		(3.86000000 0.06478248 0.00000000)
		(3.88000000 0.06478248 0.00000000)
		(3.90000000 0.06478248 0.00000000)
		(3.92000000 0.06478248 0.00000000)
		(3.94000000 0.06478248 0.00000000)
		(3.96000000 0.06478248 0.00000000)
		(3.98000000 0.06478248 0.00000000)
		(4.00000000 0.06478248 0.00000000)
	)
	polyLine 4 5
	(
		(-1.00000000 -0.23760149 0.10000000)
		(-0.98000000 -0.23760149 0.10000000)
		(-0.96000000 -0.23760149 0.10000000)
		(-0.94000000 -0.23760149 0.10000000)
		(-0.92000000 -0.23760149 0.10000000)
		(-0.90000000 -0.23760149 0.10000000)
		(-0.88000000 -0.23760149 0.10000000)
		(-0.86000000 -0.23760149 0.10000000)
		(-0.84000000 -0.23760149 0.10000000)
		(-0.82000000 -0.23760149 0.10000000)
		(-0.80000000 -0.23760149 0.10000000)
		(-0.78000000 -0.23760149 0.10000000)
		(-0.76000000 -0.23760149 0.10000000)
		(-0.74000000 -0.23760149 0.10000000)
		(-0.72000000 -0.23760149 0.10000000)
		(-0.70000000 -0.23760149 0.10000000)
		(-0.68000000 -0.23760149 0.10000000)
		(-0.66000000 -0.23760149 0.10000000)
		(-0.64000000 -0.23760149 0.10000000)
		(-0.62000000 -0.23760149 0.10000000)
		(-0.60000000 -0.23760149 0.10000000)
		(-0.58000000 -0.23760149 0.10000000)
		(-0.56000000 -0.23760149 0.10000000)
		(-0.54000000 -0.23760149 0.10000000)
		(-0.52000000 -0.23760149 0.10000000)
		(-0.50000000 -0.23760149 0.10000000)
		(-0.48000000 -0.23760149 0.10000000)
		(-0.46000000 -0.23760149 0.10000000)
		(-0.44000000 -0.23760149 0.10000000)
		(-0.42000000 -0.23760149 0.10000000)
		(-0.40000000 -0.23760149 0.10000000)
		(-0.38000000 -0.23760149 0.10000000)
		(-0.36000000 -0.23760149 0.10000000)
		(-0.34000000 -0.23760149 0.10000000)
		(-0.32000000 -0.23760149 0.10000000)
		(-0.30000000 -0.23760149 0.10000000)
		(-0.28000000 -0.23760149 0.10000000)
		(-0.26000000 -0.23760149 0.10000000)
		(-0.24000000 -0.23760149 0.10000000)
		(-0.22000000 -0.23760149 0.10000000)
		(-0.20000000 -0.23760149 0.10000000)
		(-0.18000000 -0.23760149 0.10000000)
		(-0.16000000 -0.23760149 0.10000000)
		(-0.14000000 -0.23760149 0.10000000)
		(-0.12000000 -0.23760149 0.10000000)
		(-0.10000000 -0.23760149 0.10000000)
		(-0.08162011 -0.23772541 0.10000000)
		(-0.06324022 -0.23809714 0.10000000)
		(-0.04486034 -0.23871671 0.10000000)
		(-0.02648045 -0.23958410 0.10000000)
		(-0.00810056 -0.24069931 0.10000000)
		(0.01027933 -0.24206235 0.10000000)
		(0.02865922 -0.24367322 0.10000000)
		(0.04703911 -0.24553191 0.10000000)
		(0.06541899 -0.24763843 0.10000000)
		(0.08379888 -0.24999277 0.10000000)
		(0.10055866 -0.24963392 0.10000000)
		(0.11731844 -0.24832411 0.10000000)
		(0.13407821 -0.24606833 0.10000000)
		(0.15083799 -0.24287518 0.10000000)
		(0.16759777 -0.23875682 0.10000000)
		(0.18435754 -0.23372893 0.10000000)
		(0.20111732 -0.22781068 0.10000000)
		(0.21787709 -0.22102460 0.10000000)
		(0.23463687 -0.21339654 0.10000000)
		(0.25139665 -0.20495557 0.10000000)
		(0.26815642 -0.19573385 0.10000000)
		(0.28491620 -0.18576649 0.10000000)
		(0.30167598 -0.17509147 0.10000000)
		(0.31843575 -0.16374945 0.10000000)
		(0.33519553 -0.15178364 0.10000000)
		(0.35195531 -0.13923963 0.10000000)
		(0.36871508 -0.12616520 0.10000000)
		(0.38547486 -0.11261015 0.10000000)
		(0.40223464 -0.09862613 0.10000000)
		(0.41899441 -0.08426640 0.10000000)
		(0.43575419 -0.06958566 0.10000000)
		(0.45251397 -0.05463984 0.10000000)
		(0.46927374 -0.03948587 0.10000000)
		(0.48603352 -0.02418149 0.10000000)
		(0.50279330 -0.00878499 0.10000000)
		(0.51955307 0.00664497 0.10000000)
		(0.53631285 0.02204963 0.10000000)
		(0.55307263 0.03737028 0.10000000)
		(0.56983240 0.05254858 0.10000000)
		(0.58659218 0.06752670 0.10000000)
		(0.60335196 0.08224758 0.10000000)
		(0.62011173 0.09665514 0.10000000)
		(0.63687151 0.11069451 0.10000000)
		(0.65363128 0.12431220 0.10000000)
		(0.67039106 0.13745632 0.10000000)
		(0.68715084 0.15007683 0.10000000)
		(0.70391061 0.16212562 0.10000000)
		(0.72067039 0.17355682 0.10000000)
		(0.73743017 0.18432686 0.10000000)
		(0.75418994 0.19439473 0.10000000)
		(0.77094972 0.20372207 0.10000000)
		(0.78770950 0.21227335 0.10000000)
		(0.80446927 0.22001599 0.10000000)
		(0.82122905 0.22692050 0.10000000)
		(0.83798883 0.23296058 0.10000000)
		(0.85474860 0.23811321 0.10000000)
		(0.87150838 0.24235878 0.10000000)
		(0.88826816 0.24568109 0.10000000)
		(0.90502793 0.24806751 0.10000000)
		(0.92178771 0.24950894 0.10000000)
		(0.93854749 0.24999989 0.10000000)
		(0.95530726 0.24953848 0.10000000)
		(0.97206704 0.24812648 0.10000000)
		(0.98882682 0.24576926 0.10000000)
		(1.00558659 0.24247581 0.10000000)
		(1.02234637 0.23825866 0.10000000)
		(1.03910615 0.23313389 0.10000000)
		(1.05586592 0.22712102 0.10000000)
		(1.07262570 0.22024295 0.10000000)
		(1.08938547 0.21252589 0.10000000)
		(1.10614525 0.20399922 0.10000000)
		(1.12290503 0.19469544 0.10000000)
		(1.13966480 0.18464999 0.10000000)
		(1.15642458 0.17390112 0.10000000)
		(1.17318436 0.16248980 0.10000000)
		(1.18994413 0.15045949 0.10000000)
		(1.20670391 0.13785601 0.10000000)
		(1.22346369 0.12472738 0.10000000)
		(1.24022346 0.11112362 0.10000000)
		(1.25698324 0.09709654 0.10000000)
		(1.27374302 0.08269958 0.10000000)
		(1.29050279 0.06798758 0.10000000)
		(1.30726257 0.05301659 0.10000000)
		(1.32402235 0.03784364 0.10000000)
		(1.34078212 0.02252653 0.10000000)
		(1.35754190 0.00712360 0.10000000)
		(1.37430168 -0.00830646 0.10000000)
		(1.39106145 -0.02370489 0.10000000)
		(1.40782123 -0.03901300 0.10000000)
		(1.42458101 -0.05417251 0.10000000)
		(1.44134078 -0.06912564 0.10000000)
		(1.45810056 -0.08381545 0.10000000)
		(1.47486034 -0.09818598 0.10000000)
		(1.49162011 -0.11218247 0.10000000)
		(1.50837989 -0.12575161 0.10000000)
		(1.52513966 -0.13884171 0.10000000)
		(1.54189944 -0.15140291 0.10000000)
		(1.55865922 -0.16338735 0.10000000)
		(1.57541899 -0.17474938 0.10000000)
		(1.59217877 -0.18544572 0.10000000)
		(1.60893855 -0.19543562 0.10000000)
		(1.62569832 -0.20468103 0.10000000)
		(1.64245810 -0.21314672 0.10000000)
		(1.65921788 -0.22080045 0.10000000)
		(1.67597765 -0.22761305 0.10000000)
		(1.69273743 -0.23355859 0.10000000)
		(1.70949721 -0.23861441 0.10000000)
		(1.72625698 -0.24276124 0.10000000)
		(1.74301676 -0.24598330 0.10000000)
		(1.75977654 -0.24826831 0.10000000)
		(1.77653631 -0.24960756 0.10000000)
		(1.79329609 -0.24999595 0.10000000)
		(1.81005587 -0.24943201 0.10000000)
		(1.82681564 -0.24791787 0.10000000)
		(1.84357542 -0.24545932 0.10000000)
		(1.86033520 -0.24206571 0.10000000)
		(1.87709497 -0.23774997 0.10000000)
		(1.89385475 -0.23252855 0.10000000)
		(1.91061453 -0.22642132 0.10000000)
		(1.92737430 -0.21945157 0.10000000)
		(1.94413408 -0.21164584 0.10000000)
		(1.96089385 -0.20303385 0.10000000)
		(1.97765363 -0.19364843 0.10000000)
		(1.99441341 -0.18352533 0.10000000)
		(2.01117318 -0.17270310 0.10000000)
		(2.02793296 -0.16122297 0.10000000)
		(2.04469274 -0.14912868 0.10000000)
		(2.06145251 -0.13646629 0.10000000)
		(2.07821229 -0.12328405 0.10000000)
		(2.09497207 -0.10963217 0.10000000)
		(2.11173184 -0.09556266 0.10000000)
		(2.12849162 -0.08112911 0.10000000)
		(2.14525140 -0.06638650 0.10000000)
		(2.16201117 -0.05139100 0.10000000)
		(2.17877095 -0.03619973 0.10000000)
		(2.19553073 -0.02087056 0.10000000)
		(2.21229050 -0.00546189 0.10000000)
		(2.22905028 0.00996759 0.10000000)
		(2.24581006 0.02535910 0.10000000)
		(2.26256983 0.04065400 0.10000000)
		(2.27932961 0.05579404 0.10000000)
		(2.29608939 0.07072154 0.10000000)
		(2.31284916 0.08537963 0.10000000)
		(2.32960894 0.09971247 0.10000000)
		(2.34636872 0.11366546 0.10000000)
		(2.36312849 0.12718546 0.10000000)
		(2.37988827 0.14022096 0.10000000)
		(2.39664804 0.15272229 0.10000000)
		(2.41340782 0.16464185 0.10000000)
		(2.43016760 0.17593421 0.10000000)
		(2.44692737 0.18655638 0.10000000)
		(2.46368715 0.19646787 0.10000000)
		(2.48044693 0.20563093 0.10000000)
		(2.49720670 0.21401066 0.10000000)
		(2.51396648 0.22157514 0.10000000)
		(2.53072626 0.22829554 0.10000000)
		(2.54748603 0.23414628 0.10000000)
		(2.56424581 0.23910505 0.10000000)
		(2.58100559 0.24315298 0.10000000)
		(2.59776536 0.24627463 0.10000000)
		(2.61452514 0.24845813 0.10000000)
		(2.63128492 0.24969514 0.10000000)
		(2.64804469 0.24998096 0.10000000)
		(2.66480447 0.24931451 0.10000000)
		(2.68156425 0.24769831 0.10000000)
		(2.69832402 0.24513853 0.10000000)
		(2.71508380 0.24164491 0.10000000)
		(2.73184358 0.23723077 0.10000000)
		(2.74860335 0.23191292 0.10000000)
		(2.76536313 0.22571162 0.10000000)
		(2.78212291 0.21865049 0.10000000)
		(2.79888268 0.21075643 0.10000000)
		(2.81564246 0.20205951 0.10000000)
		(2.83240223 0.19259286 0.10000000)
		(2.84916201 0.18239255 0.10000000)
		(2.86592179 0.17149743 0.10000000)
		(2.88268156 0.15994901 0.10000000)
		(2.89944134 0.14779127 0.10000000)
		(2.91620112 0.13507054 0.10000000)
		(2.93296089 0.12183527 0.10000000)
		(2.95166480 0.11099524 0.10000000)
		(2.97036872 0.10129627 0.10000000)
		(2.98907263 0.09273835 0.10000000)
		(3.00777654 0.08532149 0.10000000)
		(3.02648045 0.07904568 0.10000000)
		(3.04518436 0.07391093 0.10000000)
		(3.06388827 0.06991723 0.10000000)
		(3.08259218 0.06706459 0.10000000)
		(3.10129609 0.06535301 0.10000000)
		(3.12000000 0.06478248 0.10000000)
		(3.14000000 0.06478248 0.10000000)
		(3.16000000 0.06478248 0.10000000)
		(3.18000000 0.06478248 0.10000000)
		(3.20000000 0.06478248 0.10000000)
		(3.22000000 0.06478248 0.10000000)
		(3.24000000 0.06478248 0.10000000)
		(3.26000000 0.06478248 0.10000000)
		(3.28000000 0.06478248 0.10000000)
		(3.30000000 0.06478248 0.10000000)
		(3.32000000 0.06478248 0.10000000)
		(3.34000000 0.06478248 0.10000000)
		(3.36000000 0.06478248 0.10000000)
		(3.38000000 0.06478248 0.10000000)
		(3.40000000 0.06478248 0.10000000)
		(3.42000000 0.06478248 0.10000000)
		(3.44000000 0.06478248 0.10000000)
		(3.46000000 0.06478248 0.10000000)
		(3.48000000 0.06478248 0.10000000)
		(3.50000000 0.06478248 0.10000000)
		(3.52000000 0.06478248 0.10000000)
		(3.54000000 0.06478248 0.10000000)
		(3.56000000 0.06478248 0.10000000)
		(3.58000000 0.06478248 0.10000000)
		(3.60000000 0.06478248 0.10000000)
		(3.62000000 0.06478248 0.10000000)
		(3.64000000 0.06478248 0.10000000)
		(3.66000000 0.06478248 0.10000000)
		(3.68000000 0.06478248 0.10000000)
		(3.70000000 0.06478248 0.10000000)
		(3.72000000 0.06478248 0.10000000)
		(3.74000000 0.06478248 0.10000000)
		(3.76000000 0.06478248 0.10000000)
		(3.78000000 0.06478248 0.10000000)
		(3.80000000 0.06478248 0.10000000)
		(3.82000000 0.06478248 0.10000000)
		(3.84000000 0.06478248 0.10000000)
		(3.86000000 0.06478248 0.10000000)
		(3.88000000 0.06478248 0.10000000)
		(3.90000000 0.06478248 0.10000000)
		(3.92000000 0.06478248 0.10000000)
		(3.94000000 0.06478248 0.10000000)
		(3.96000000 0.06478248 0.10000000)
		(3.98000000 0.06478248 0.10000000)
		(4.00000000 0.06478248 0.10000000)
	)
	polyLine 3 2
	(
		(-1.00000000 0.26239851 0.00000000)
		(-0.98000000 0.26409185 0.00000000)
		(-0.96000000 0.26578518 0.00000000)
		(-0.94000000 0.26747852 0.00000000)
		(-0.92000000 0.26917186 0.00000000)
		(-0.90000000 0.27086520 0.00000000)
		(-0.88000000 0.27255853 0.00000000)
		(-0.86000000 0.27425187 0.00000000)
		(-0.84000000 0.27594521 0.00000000)
		(-0.82000000 0.27763855 0.00000000)
		(-0.80000000 0.27933188 0.00000000)
		(-0.78000000 0.28102522 0.00000000)
		(-0.76000000 0.28271856 0.00000000)
		(-0.74000000 0.28441190 0.00000000)
		(-0.72000000 0.28610524 0.00000000)
		(-0.70000000 0.28779857 0.00000000)
		(-0.68000000 0.28949191 0.00000000)
		(-0.66000000 0.29118525 0.00000000)
		(-0.64000000 0.29287859 0.00000000)
		(-0.62000000 0.29457192 0.00000000)
		(-0.60000000 0.29626526 0.00000000)
		(-0.58000000 0.29795860 0.00000000)
		(-0.56000000 0.29965194 0.00000000)
		(-0.54000000 0.30134528 0.00000000)
		(-0.52000000 0.30303861 0.00000000)
		(-0.50000000 0.30473195 0.00000000)
		(-0.48000000 0.30642529 0.00000000)
		(-0.46000000 0.30811863 0.00000000)
		(-0.44000000 0.30981196 0.00000000)
		(-0.42000000 0.31150530 0.00000000)
		(-0.40000000 0.31319864 0.00000000)
		(-0.38000000 0.31489198 0.00000000)
		(-0.36000000 0.31658531 0.00000000)
		(-0.34000000 0.31827865 0.00000000)
		(-0.32000000 0.31997199 0.00000000)
		(-0.30000000 0.32166533 0.00000000)
		(-0.28000000 0.32335867 0.00000000)
		(-0.26000000 0.32505200 0.00000000)
		(-0.24000000 0.32674534 0.00000000)
		(-0.22000000 0.32843868 0.00000000)
		(-0.20000000 0.33013202 0.00000000)
		(-0.18000000 0.33182535 0.00000000)
		(-0.16000000 0.33351869 0.00000000)
		(-0.14000000 0.33521203 0.00000000)
		(-0.12000000 0.33690537 0.00000000)
		(-0.10000000 0.33859870 0.00000000)
		(-0.08162011 0.33983610 0.00000000)
		(-0.06324022 0.34076983 0.00000000)
		(-0.04486034 0.34139990 0.00000000)
		(-0.02648045 0.34172632 0.00000000)
		(-0.00810056 0.34174908 0.00000000)
		(0.01027933 0.34146817 0.00000000)
		(0.02865922 0.34088361 0.00000000)
		(0.04703911 0.33999539 0.00000000)
		(0.06541899 0.33880351 0.00000000)
		(0.08379888 0.33730798 0.00000000)
		(0.10055866 0.33754151 0.00000000)
		(0.11731844 0.33839392 0.00000000)
		(0.13407821 0.33986195 0.00000000)
		(0.15083799 0.34194001 0.00000000)
		(0.16759777 0.34462018 0.00000000)
		(0.18435754 0.34789227 0.00000000)
		(0.20111732 0.35174379 0.00000000)
		(0.21787709 0.35616008 0.00000000)
		(0.23463687 0.36112432 0.00000000)
		(0.25139665 0.36661759 0.00000000)
		(0.26815642 0.37261897 0.00000000)
		(0.28491620 0.37910560 0.00000000)
		(0.30167598 0.38605276 0.00000000)
		(0.31843575 0.39343400 0.00000000)
		(0.33519553 0.40122119 0.00000000)
		(0.35195531 0.40938467 0.00000000)
		(0.36871508 0.41789334 0.00000000)
		(0.38547486 0.42671478 0.00000000)
		(0.40223464 0.43581541 0.00000000)
		(0.41899441 0.44516053 0.00000000)
		(0.43575419 0.45471456 0.00000000)
		(0.45251397 0.46444111 0.00000000)
		(0.46927374 0.47430311 0.00000000)
		(0.48603352 0.48426300 0.00000000)
		(0.50279330 0.49428284 0.00000000)
		(0.51955307 0.50432446 0.00000000)
		(0.53631285 0.51434961 0.00000000)
		(0.55307263 0.52432009 0.00000000)
		(0.56983240 0.53419793 0.00000000)
		(0.58659218 0.54394549 0.00000000)
		(0.60335196 0.55352565 0.00000000)
		(0.62011173 0.56290190 0.00000000)
		(0.63687151 0.57203854 0.00000000)
		(0.65363128 0.58090075 0.00000000)
		(0.67039106 0.58945478 0.00000000)
		(0.68715084 0.59766804 0.00000000)
		(0.70391061 0.60550924 0.00000000)
		(0.72067039 0.61294851 0.00000000)
		(0.73743017 0.61995751 0.00000000)
		(0.75418994 0.62650955 0.00000000)
		(0.77094972 0.63257966 0.00000000)
		(0.78770950 0.63814472 0.00000000)
		(0.80446927 0.64318353 0.00000000)
		(0.82122905 0.64767690 0.00000000)
		(0.83798883 0.65160770 0.00000000)
		(0.85474860 0.65496097 0.00000000)
		(0.87150838 0.65772392 0.00000000)
		(0.88826816 0.65988604 0.00000000)
		(0.90502793 0.66143909 0.00000000)
		(0.92178771 0.66237716 0.00000000)
		(0.93854749 0.66269666 0.00000000)
		(0.95530726 0.66239638 0.00000000)
		(0.97206704 0.66147747 0.00000000)
		(0.98882682 0.65994342 0.00000000)
		(1.00558659 0.65780008 0.00000000)
		(1.02234637 0.65505562 0.00000000)
		(1.03910615 0.65172049 0.00000000)
		(1.05586592 0.64780739 0.00000000)
		(1.07262570 0.64333123 0.00000000)
		(1.08938547 0.63830907 0.00000000)
		(1.10614525 0.63276003 0.00000000)
		(1.12290503 0.62670525 0.00000000)
		(1.13966480 0.62016780 0.00000000)
		(1.15642458 0.61317258 0.00000000)
		(1.17318436 0.60574624 0.00000000)
		(1.18994413 0.59791707 0.00000000)
		(1.20670391 0.58971489 0.00000000)
		(1.22346369 0.58117095 0.00000000)
		(1.24022346 0.57231780 0.00000000)
		(1.25698324 0.56318916 0.00000000)
		(1.27374302 0.55381980 0.00000000)
		(1.29050279 0.54424543 0.00000000)
		(1.30726257 0.53450250 0.00000000)
		(1.32402235 0.52462815 0.00000000)
		(1.34078212 0.51465997 0.00000000)
		(1.35754190 0.50463594 0.00000000)
		(1.37430168 0.49459426 0.00000000)
		(1.39106145 0.48457317 0.00000000)
		(1.40782123 0.47461085 0.00000000)
		(1.42458101 0.46474524 0.00000000)
		(1.44134078 0.45501393 0.00000000)
		(1.45810056 0.44545400 0.00000000)
		(1.47486034 0.43610185 0.00000000)
		(1.49162011 0.42699312 0.00000000)
		(1.50837989 0.41816250 0.00000000)
		(1.52513966 0.40964363 0.00000000)
		(1.54189944 0.40146897 0.00000000)
		(1.55865922 0.39366965 0.00000000)
		(1.57541899 0.38627539 0.00000000)
		(1.59217877 0.37931435 0.00000000)
		(1.60893855 0.37281305 0.00000000)
		(1.62569832 0.36679627 0.00000000)
		(1.64245810 0.36128690 0.00000000)
		(1.65921788 0.35630596 0.00000000)
		(1.67597765 0.35187240 0.00000000)
		(1.69273743 0.34800312 0.00000000)
		(1.70949721 0.34471286 0.00000000)
		(1.72625698 0.34201416 0.00000000)
		(1.74301676 0.33991728 0.00000000)
		(1.75977654 0.33843023 0.00000000)
		(1.77653631 0.33755866 0.00000000)
		(1.79329609 0.33730590 0.00000000)
		(1.81005587 0.33767291 0.00000000)
		(1.82681564 0.33865829 0.00000000)
		(1.84357542 0.34025828 0.00000000)
		(1.86033520 0.34246680 0.00000000)
		(1.87709497 0.34527543 0.00000000)
		(1.89385475 0.34867346 0.00000000)
		(1.91061453 0.35264796 0.00000000)
		(1.92737430 0.35718379 0.00000000)
		(1.94413408 0.36226366 0.00000000)
		(1.96089385 0.36786822 0.00000000)
		(1.97765363 0.37397613 0.00000000)
		(1.99441341 0.38056412 0.00000000)
		(2.01117318 0.38760708 0.00000000)
		(2.02793296 0.39507820 0.00000000)
		(2.04469274 0.40294901 0.00000000)
		(2.06145251 0.41118952 0.00000000)
		(2.07821229 0.41976835 0.00000000)
		(2.09497207 0.42865282 0.00000000)
		(2.11173184 0.43780907 0.00000000)
		(2.12849162 0.44720224 0.00000000)
		(2.14525140 0.45679653 0.00000000)
		(2.16201117 0.46655541 0.00000000)
		(2.17877095 0.47644169 0.00000000)
		(2.19553073 0.48641771 0.00000000)
		(2.21229050 0.49644547 0.00000000)
		(2.22905028 0.50648678 0.00000000)
		(2.24581006 0.51650337 0.00000000)
		(2.26256983 0.52645709 0.00000000)
		(2.27932961 0.53631003 0.00000000)
		(2.29608939 0.54602465 0.00000000)
		(2.31284916 0.55556394 0.00000000)
		(2.32960894 0.56489157 0.00000000)
		(2.34636872 0.57397200 0.00000000)
		(2.36312849 0.58277064 0.00000000)
		(2.37988827 0.59125397 0.00000000)
		(2.39664804 0.59938967 0.00000000)
		(2.41340782 0.60714676 0.00000000)
		(2.43016760 0.61449569 0.00000000)
		(2.44692737 0.62140845 0.00000000)
		(2.46368715 0.62785872 0.00000000)
		(2.48044693 0.63382192 0.00000000)
		(2.49720670 0.63927534 0.00000000)
		(2.51396648 0.64419820 0.00000000)
		(2.53072626 0.64857175 0.00000000)