/*--------------------------------*- C++ -*----------------------------------*\\
/*--------------------------------*- C++ -*----------------------------------*\\
| =========                 |                                                 |
| \\\\      /  F ield         | OpenFOAM: The Open Source CFD Toolbox           |
|  \\\\    /   O peration     | Version:  v2012                                 |
|   \\\\  /    A nd           | Website:  www.openfoam.com                      |
|    \\\\/     M anipulation  |                                                 |
\\*---------------------------------------------------------------------------*/
FoamFile
{
    version     2.0;
    format      ascii;
    class       dictionary;
    object      blockMeshDict;
}
// * * * * * * * * * * * * * * * * * * * * * * * * * * * * * * * * * * * * * //

scale   0.01;

xmin -1;
xmax 5;
ymin 0;
ymax 0.5;
zmin 0;
zmax 0.1;

vertices
(
    (-1.00000000 0.23722750 0.00000000)
    (4.00000000 0.23377866 0.00000000)
    (4.00000000 0.73377866 0.00000000)
    (-1.00000000 0.73722750 0.00000000)
    (-1.00000000 0.23722750 0.10000000)
    (4.00000000 0.23377866 0.10000000)
    (4.00000000 0.73377866 0.10000000)
    (-1.00000000 0.73722750 0.10000000)
);

blocks
(
    hex (0 1 2 3 4 5 6 7) (200 20 1) simpleGrading (1 1 1)
);

edges
(
	polyLine 0 1
	(
		(-1.00000000 0.23722750 0.00000000)
		(-0.98000000 0.23722750 0.00000000)
		(-0.96000000 0.23722750 0.00000000)
		(-0.94000000 0.23722750 0.00000000)
		(-0.92000000 0.23722750 0.00000000)
		(-0.90000000 0.23722750 0.00000000)
		(-0.88000000 0.23722750 0.00000000)
		(-0.86000000 0.23722750 0.00000000)
		(-0.84000000 0.23722750 0.00000000)
		(-0.82000000 0.23722750 0.00000000)
		(-0.80000000 0.23722750 0.00000000)
		(-0.78000000 0.23722750 0.00000000)
		(-0.76000000 0.23722750 0.00000000)
		(-0.74000000 0.23722750 0.00000000)
		(-0.72000000 0.23722750 0.00000000)
		(-0.70000000 0.23722750 0.00000000)
		(-0.68000000 0.23722750 0.00000000)
		(-0.66000000 0.23722750 0.00000000)
		(-0.64000000 0.23722750 0.00000000)
		(-0.62000000 0.23722750 0.00000000)
		(-0.60000000 0.23722750 0.00000000)
		(-0.58000000 0.23722750 0.00000000)
		(-0.56000000 0.23722750 0.00000000)
		(-0.54000000 0.23722750 0.00000000)
		(-0.52000000 0.23722750 0.00000000)
		(-0.50000000 0.23722750 0.00000000)
		(-0.48000000 0.23722750 0.00000000)
		(-0.46000000 0.23722750 0.00000000)
		(-0.44000000 0.23722750 0.00000000)
		(-0.42000000 0.23722750 0.00000000)
		(-0.40000000 0.23722750 0.00000000)
		(-0.38000000 0.23722750 0.00000000)
		(-0.36000000 0.23722750 0.00000000)
		(-0.34000000 0.23722750 0.00000000)
		(-0.32000000 0.23722750 0.00000000)
		(-0.30000000 0.23722750 0.00000000)
		(-0.28000000 0.23722750 0.00000000)
		(-0.26000000 0.23722750 0.00000000)
		(-0.24000000 0.23722750 0.00000000)
		(-0.22000000 0.23722750 0.00000000)
		(-0.20000000 0.23722750 0.00000000)
		(-0.18000000 0.23722750 0.00000000)
		(-0.16000000 0.23722750 0.00000000)
		(-0.14000000 0.23722750 0.00000000)
		(-0.12000000 0.23722750 0.00000000)
		(-0.10000000 0.23722750 0.00000000)
		(-0.08162011 0.23735419 0.00000000)
		(-0.06324022 0.23773424 0.00000000)
		(-0.04486034 0.23836767 0.00000000)
		(-0.02648045 0.23925447 0.00000000)
		(-0.00810056 0.24039465 0.00000000)
		(0.01027933 0.24178819 0.00000000)
		(0.02865922 0.24343511 0.00000000)
		(0.04703911 0.24533540 0.00000000)
		(0.06541899 0.24748906 0.00000000)
		(0.08379888 0.24989609 0.00000000)
		(0.10055866 0.24878067 0.00000000)
		(0.11731844 0.24644765 0.00000000)
		(0.13407821 0.24290846 0.00000000)
		(0.15083799 0.23818042 0.00000000)
		(0.16759777 0.23228666 0.00000000)
		(0.18435754 0.22525604 0.00000000)
		(0.20111732 0.21712296 0.00000000)
		(0.21787709 0.20792723 0.00000000)
		(0.23463687 0.19771385 0.00000000)
		(0.25139665 0.18653281 0.00000000)
		(0.26815642 0.17443884 0.00000000)
		(0.28491620 0.16149112 0.00000000)
		(0.30167598 0.14775302 0.00000000)
		(0.31843575 0.13329179 0.00000000)
		(0.33519553 0.11817819 0.00000000)
		(0.35195531 0.10248620 0.00000000)
		(0.36871508 0.08629262 0.00000000)
		(0.38547486 0.06967670 0.00000000)
		(0.40223464 0.05271977 0.00000000)
		(0.41899441 0.03550481 0.00000000)
		(0.43575419 0.01811609 0.00000000)
		(0.45251397 0.00063870 0.00000000)
		(0.46927374 -0.01684182 0.00000000)
		(0.48603352 -0.03423991 0.00000000)
		(0.50279330 -0.05147042 0.00000000)
		(0.51955307 -0.06844902 0.00000000)
		(0.53631285 -0.08509261 0.00000000)
		(0.55307263 -0.10131974 0.00000000)
		(0.56983240 -0.11705099 0.00000000)
		(0.58659218 -0.13220936 0.00000000)
		(0.60335196 -0.14672067 0.00000000)
		(0.62011173 -0.16051389 0.00000000)
		(0.63687151 -0.17352152 0.00000000)
		(0.65363128 -0.18567989 0.00000000)
		(0.67039106 -0.19692950 0.00000000)
		(0.68715084 -0.20721529 0.00000000)
		(0.70391061 -0.21648692 0.00000000)
		(0.72067039 -0.22469901 0.00000000)
		(0.73743017 -0.23181136 0.00000000)
		(0.75418994 -0.23778918 0.00000000)
		(0.77094972 -0.24260320 0.00000000)
		(0.78770950 -0.24622986 0.00000000)
		(0.80446927 -0.24865141 0.00000000)
		(0.82122905 -0.24985600 0.00000000)
		(0.83798883 -0.24983774 0.00000000)
		(0.85474860 -0.24859671 0.00000000)
		(0.87150838 -0.24613899 0.00000000)
		(0.88826816 -0.24247660 0.00000000)
		(0.90502793 -0.23762748 0.00000000)
		(0.92178771 -0.23161535 0.00000000)
		(0.93854749 -0.22446964 0.00000000)
		(0.95530726 -0.21622532 0.00000000)
		(0.97206704 -0.20692274 0.00000000)
		(0.98882682 -0.19660743 0.00000000)
		(1.00558659 -0.18532988 0.00000000)
		(1.02234637 -0.17314528 0.00000000)
		(1.03910615 -0.16011326 0.00000000)
		(1.05586592 -0.14629761 0.00000000)
		(1.07262570 -0.13176595 0.00000000)
		(1.08938547 -0.11658939 0.00000000)
		(1.10614525 -0.10084221 0.00000000)
		(1.12290503 -0.08460149 0.00000000)
		(1.13966480 -0.06794671 0.00000000)
		(1.15642458 -0.05095938 0.00000000)
		(1.17318436 -0.03372264 0.00000000)
		(1.18994413 -0.01632086 0.00000000)
		(1.20670391 0.00116081 0.00000000)
		(1.22346369 0.01863679 0.00000000)
		(1.24022346 0.03602155 0.00000000)
		(1.25698324 0.05323002 0.00000000)
		(1.27374302 0.07017797 0.00000000)
		(1.29050279 0.08678245 0.00000000)
		(1.30726257 0.10296220 0.00000000)
		(1.32402235 0.11863803 0.00000000)
		(1.34078212 0.13373321 0.00000000)
		(1.35754190 0.14817387 0.00000000)
		(1.37430168 0.16188933 0.00000000)
		(1.39106145 0.17481246 0.00000000)
		(1.40782123 0.18688003 0.00000000)
		(1.42458101 0.19803295 0.00000000)
		(1.44134078 0.20821666 0.00000000)
		(1.45810056 0.21738130 0.00000000)
		(1.47486034 0.22548202 0.00000000)
		(1.49162011 0.23247918 0.00000000)
		(1.50837989 0.23833854 0.00000000)
		(1.52513966 0.24303140 0.00000000)
		(1.54189944 0.24653482 0.00000000)
		(1.55865922 0.24883163 0.00000000)
		(1.57541899 0.24991060 0.00000000)
		(1.59217877 0.24976645 0.00000000)
		(1.60893855 0.24839987 0.00000000)
		(1.62569832 0.24581758 0.00000000)
		(1.64245810 0.24203219 0.00000000)
		(1.65921788 0.23706223 0.00000000)
		(1.67597765 0.23093204 0.00000000)
		(1.69273743 0.22367161 0.00000000)
		(1.70949721 0.21531648 0.00000000)
		(1.72625698 0.20590753 0.00000000)
		(1.74301676 0.19549083 0.00000000)
		(1.75977654 0.18411734 0.00000000)
		(1.77653631 0.17184275 0.00000000)
		(1.79329609 0.15872711 0.00000000)
		(1.81005587 0.14483462 0.00000000)
		(1.82681564 0.13023328 0.00000000)
		(1.84357542 0.11499454 0.00000000)
		(1.86033520 0.09919300 0.00000000)
		(1.87709497 0.08290597 0.00000000)
		(1.89385475 0.06621319 0.00000000)
		(1.91061453 0.04919635 0.00000000)
		(1.92737430 0.03193872 0.00000000)
		(1.94413408 0.01452478 0.00000000)
		(1.96089385 -0.00296025 0.00000000)
		(1.97765363 -0.02043079 0.00000000)
		(1.99441341 -0.03780134 0.00000000)
		(2.01117318 -0.05498687 0.00000000)
		(2.02793296 -0.07190329 0.00000000)
		(2.04469274 -0.08846780 0.00000000)
		(2.06145251 -0.10459933 0.00000000)
		(2.07821229 -0.12021892 0.00000000)
		(2.09497207 -0.13525013 0.00000000)
		(2.11173184 -0.14961939 0.00000000)
		(2.12849162 -0.16325638 0.00000000)
		(2.14525140 -0.17609435 0.00000000)
		(2.16201117 -0.18807048 0.00000000)
		(2.17877095 -0.19912614 0.00000000)
		(2.19553073 -0.20920723 0.00000000)
		(2.21229050 -0.21826442 0.00000000)
		(2.22905028 -0.22625336 0.00000000)
		(2.24581006 -0.23313496 0.00000000)
		(2.26256983 -0.23887555 0.00000000)
		(2.27932961 -0.24344702 0.00000000)
		(2.29608939 -0.24682700 0.00000000)
		(2.31284916 -0.24899895 0.00000000)
		(2.32960894 -0.24995224 0.00000000)
		(2.34636872 -0.24968221 0.00000000)
		(2.36312849 -0.24819017 0.00000000)
		(2.37988827 -0.24548343 0.00000000)
		(2.39664804 -0.24157523 0.00000000)
		(2.41340782 -0.23648470 0.00000000)
		(2.43016760 -0.23023676 0.00000000)
		(2.44692737 -0.22286199 0.00000000)
		(2.46368715 -0.21439648 0.00000000)
		(2.48044693 -0.20488166 0.00000000)
		(2.49720670 -0.19436410 0.00000000)
		(2.51396648 -0.18289527 0.00000000)
		(2.53072626 -0.17053131 0.00000000)
		(2.54748603 -0.15733273 0.00000000)
		(2.56424581 -0.14336413 0.00000000)
		(2.58100559 -0.12869386 0.00000000)
		(2.59776536 -0.11339374 0.00000000)
		(2.61452514 -0.09753864 0.00000000)
		(2.63128492 -0.08120616 0.00000000)
		(2.64804469 -0.06447625 0.00000000)
		(2.66480447 -0.04743076 0.00000000)
		(2.68156425 -0.03015315 0.00000000)
		(2.69832402 -0.01272795 0.00000000)
		(2.71508380 0.00475954 0.00000000)
		(2.73184358 0.02222373 0.00000000)
		(2.74860335 0.03957916 0.00000000)
		(2.76536313 0.05674088 0.00000000)
		(2.78212291 0.07362489 0.00000000)
		(2.79888268 0.09014856 0.00000000)
		(2.81564246 0.10623103 0.00000000)
		(2.83240223 0.12179358 0.00000000)
		(2.84916201 0.13676004 0.00000000)
		(2.86592179 0.15105716 0.00000000)
		(2.88268156 0.16461497 0.00000000)
		(2.89944134 0.17736712 0.00000000)
		(2.91620112 0.18925119 0.00000000)
		(2.93296089 0.20020902 0.00000000)
		(2.95166480 0.20658725 0.00000000)
		(2.97036872 0.21229409 0.00000000)
		(2.98907263 0.21732953 0.00000000)
		(3.00777654 0.22169359 0.00000000)
		(3.02648045 0.22538625 0.00000000)
		(3.04518436 0.22840752 0.00000000)
		(3.06388827 0.23075739 0.00000000)
		(3.08259218 0.23243587 0.00000000)
		(3.10129609 0.23344296 0.00000000)
		(3.12000000 0.23377866 0.00000000)
		(3.14000000 0.23377866 0.00000000)
		(3.16000000 0.23377866 0.00000000)
		(3.18000000 0.23377866 0.00000000)
		(3.20000000 0.23377866 0.00000000)
		(3.22000000 0.23377866 0.00000000)
		(3.24000000 0.23377866 0.00000000)
		(3.26000000 0.23377866 0.00000000)
		(3.28000000 0.23377866 0.00000000)
		(3.30000000 0.23377866 0.00000000)
		(3.32000000 0.23377866 0.00000000)
		(3.34000000 0.23377866 0.00000000)
		(3.36000000 0.23377866 0.00000000)
		(3.38000000 0.23377866 0.00000000)
		(3.40000000 0.23377866 0.00000000)
		(3.42000000 0.23377866 0.00000000)
		(3.44000000 0.23377866 0.00000000)
		(3.46000000 0.23377866 0.00000000)
		(3.48000000 0.23377866 0.00000000)
		(3.50000000 0.23377866 0.00000000)
		(3.52000000 0.23377866 0.00000000)
		(3.54000000 0.23377866 0.00000000)
		(3.56000000 0.23377866 0.00000000)
		(3.58000000 0.23377866 0.00000000)
		(3.60000000 0.23377866 0.00000000)
		(3.62000000 0.23377866 0.00000000)
		(3.64000000 0.23377866 0.00000000)
		(3.66000000 0.23377866 0.00000000)
		(3.68000000 0.23377866 0.00000000)
		(3.70000000 0.23377866 0.00000000)
		(3.72000000 0.23377866 0.00000000)
		(3.74000000 0.23377866 0.00000000)
		(3.76000000 0.23377866 0.00000000)
		(3.78000000 0.23377866 0.00000000)
		(3.80000000 0.23377866 0.00000000)
		(3.82000000 0.23377866 0.00000000)
		(3.84000000 0.23377866 0.00000000)
		(3.86000000 0.23377866 0.00000000)
		(3.88000000 0.23377866 0.00000000)
		(3.90000000 0.23377866 0.00000000)
		(3.92000000 0.23377866 0.00000000)
		(3.94000000 0.23377866 0.00000000)
		(3.96000000 0.23377866 0.00000000)
		(3.98000000 0.23377866 0.00000000)
		(4.00000000 0.23377866 0.00000000)
	)
	polyLine 4 5
	(
		(-1.00000000 0.23722750 0.10000000)
		(-0.98000000 0.23722750 0.10000000)
		(-0.96000000 0.23722750 0.10000000)
		(-0.94000000 0.23722750 0.10000000)
		(-0.92000000 0.23722750 0.10000000)
		(-0.90000000 0.23722750 0.10000000)
		(-0.88000000 0.23722750 0.10000000)
		(-0.86000000 0.23722750 0.10000000)
		(-0.84000000 0.23722750 0.10000000)
		(-0.82000000 0.23722750 0.10000000)
		(-0.80000000 0.23722750 0.10000000)
		(-0.78000000 0.23722750 0.10000000)
		(-0.76000000 0.23722750 0.10000000)
		(-0.74000000 0.23722750 0.10000000)
		(-0.72000000 0.23722750 0.10000000)
		(-0.70000000 0.23722750 0.10000000)
		(-0.68000000 0.23722750 0.10000000)
		(-0.66000000 0.23722750 0.10000000)
		(-0.64000000 0.23722750 0.10000000)
		(-0.62000000 0.23722750 0.10000000)
		(-0.60000000 0.23722750 0.10000000)
		(-0.58000000 0.23722750 0.10000000)
		(-0.56000000 0.23722750 0.10000000)
		(-0.54000000 0.23722750 0.10000000)
		(-0.52000000 0.23722750 0.10000000)
		(-0.50000000 0.23722750 0.10000000)
		(-0.48000000 0.23722750 0.10000000)
		(-0.46000000 0.23722750 0.10000000)
		(-0.44000000 0.23722750 0.10000000)
		(-0.42000000 0.23722750 0.10000000)
		(-0.40000000 0.23722750 0.10000000)
		(-0.38000000 0.23722750 0.10000000)
		(-0.36000000 0.23722750 0.10000000)
		(-0.34000000 0.23722750 0.10000000)
		(-0.32000000 0.23722750 0.10000000)
		(-0.30000000 0.23722750 0.10000000)
		(-0.28000000 0.23722750 0.10000000)
		(-0.26000000 0.23722750 0.10000000)
		(-0.24000000 0.23722750 0.10000000)
		(-0.22000000 0.23722750 0.10000000)
		(-0.20000000 0.23722750 0.10000000)
		(-0.18000000 0.23722750 0.10000000)
		(-0.16000000 0.23722750 0.10000000)
		(-0.14000000 0.23722750 0.10000000)
		(-0.12000000 0.23722750 0.10000000)
		(-0.10000000 0.23722750 0.10000000)
		(-0.08162011 0.23735419 0.10000000)
		(-0.06324022 0.23773424 0.10000000)
		(-0.04486034 0.23836767 0.10000000)
		(-0.02648045 0.23925447 0.10000000)
		(-0.00810056 0.24039465 0.10000000)
		(0.01027933 0.24178819 0.10000000)
		(0.02865922 0.24343511 0.10000000)
		(0.04703911 0.24533540 0.10000000)
		(0.06541899 0.24748906 0.10000000)
		(0.08379888 0.24989609 0.10000000)
		(0.10055866 0.24878067 0.10000000)
		(0.11731844 0.24644765 0.10000000)
		(0.13407821 0.24290846 0.10000000)
		(0.15083799 0.23818042 0.10000000)
		(0.16759777 0.23228666 0.10000000)
		(0.18435754 0.22525604 0.10000000)
		(0.20111732 0.21712296 0.10000000)
		(0.21787709 0.20792723 0.10000000)
		(0.23463687 0.19771385 0.10000000)
		(0.25139665 0.18653281 0.10000000)
		(0.26815642 0.17443884 0.10000000)
		(0.28491620 0.16149112 0.10000000)
		(0.30167598 0.14775302 0.10000000)
		(0.31843575 0.13329179 0.10000000)
		(0.33519553 0.11817819 0.10000000)
		(0.35195531 0.10248620 0.10000000)
		(0.36871508 0.08629262 0.10000000)
		(0.38547486 0.06967670 0.10000000)
		(0.40223464 0.05271977 0.10000000)
		(0.41899441 0.03550481 0.10000000)
		(0.43575419 0.01811609 0.10000000)
		(0.45251397 0.00063870 0.10000000)
		(0.46927374 -0.01684182 0.10000000)
		(0.48603352 -0.03423991 0.10000000)
		(0.50279330 -0.05147042 0.10000000)
		(0.51955307 -0.06844902 0.10000000)
		(0.53631285 -0.08509261 0.10000000)
		(0.55307263 -0.10131974 0.10000000)
		(0.56983240 -0.11705099 0.10000000)
		(0.58659218 -0.13220936 0.10000000)
		(0.60335196 -0.14672067 0.10000000)
		(0.62011173 -0.16051389 0.10000000)
		(0.63687151 -0.17352152 0.10000000)
		(0.65363128 -0.18567989 0.10000000)
		(0.67039106 -0.19692950 0.10000000)
		(0.68715084 -0.20721529 0.10000000)
		(0.70391061 -0.21648692 0.10000000)
		(0.72067039 -0.22469901 0.10000000)
		(0.73743017 -0.23181136 0.10000000)
		(0.75418994 -0.23778918 0.10000000)
		(0.77094972 -0.24260320 0.10000000)
		(0.78770950 -0.24622986 0.10000000)
		(0.80446927 -0.24865141 0.10000000)
		(0.82122905 -0.24985600 0.10000000)
		(0.83798883 -0.24983774 0.10000000)
		(0.85474860 -0.24859671 0.10000000)
		(0.87150838 -0.24613899 0.10000000)
		(0.88826816 -0.24247660 0.10000000)
		(0.90502793 -0.23762748 0.10000000)
		(0.92178771 -0.23161535 0.10000000)
		(0.93854749 -0.22446964 0.10000000)
		(0.95530726 -0.21622532 0.10000000)
		(0.97206704 -0.20692274 0.10000000)
		(0.98882682 -0.19660743 0.10000000)
		(1.00558659 -0.18532988 0.10000000)
		(1.02234637 -0.17314528 0.10000000)
		(1.03910615 -0.16011326 0.10000000)
		(1.05586592 -0.14629761 0.10000000)
		(1.07262570 -0.13176595 0.10000000)
		(1.08938547 -0.11658939 0.10000000)
		(1.10614525 -0.10084221 0.10000000)
		(1.12290503 -0.08460149 0.10000000)
		(1.13966480 -0.06794671 0.10000000)
		(1.15642458 -0.05095938 0.10000000)
		(1.17318436 -0.03372264 0.10000000)
		(1.18994413 -0.01632086 0.10000000)
		(1.20670391 0.00116081 0.10000000)
		(1.22346369 0.01863679 0.10000000)
		(1.24022346 0.03602155 0.10000000)
		(1.25698324 0.05323002 0.10000000)
		(1.27374302 0.07017797 0.10000000)
		(1.29050279 0.08678245 0.10000000)
		(1.30726257 0.10296220 0.10000000)
		(1.32402235 0.11863803 0.10000000)
		(1.34078212 0.13373321 0.10000000)
		(1.35754190 0.14817387 0.10000000)
		(1.37430168 0.16188933 0.10000000)
		(1.39106145 0.17481246 0.10000000)
		(1.40782123 0.18688003 0.10000000)
		(1.42458101 0.19803295 0.10000000)
		(1.44134078 0.20821666 0.10000000)
		(1.45810056 0.21738130 0.10000000)
		(1.47486034 0.22548202 0.10000000)
		(1.49162011 0.23247918 0.10000000)
		(1.50837989 0.23833854 0.10000000)
		(1.52513966 0.24303140 0.10000000)
		(1.54189944 0.24653482 0.10000000)
		(1.55865922 0.24883163 0.10000000)
		(1.57541899 0.24991060 0.10000000)
		(1.59217877 0.24976645 0.10000000)
		(1.60893855 0.24839987 0.10000000)
		(1.62569832 0.24581758 0.10000000)
		(1.64245810 0.24203219 0.10000000)
		(1.65921788 0.23706223 0.10000000)
		(1.67597765 0.23093204 0.10000000)
		(1.69273743 0.22367161 0.10000000)
		(1.70949721 0.21531648 0.10000000)
		(1.72625698 0.20590753 0.10000000)
		(1.74301676 0.19549083 0.10000000)
		(1.75977654 0.18411734 0.10000000)
		(1.77653631 0.17184275 0.10000000)
		(1.79329609 0.15872711 0.10000000)
		(1.81005587 0.14483462 0.10000000)
		(1.82681564 0.13023328 0.10000000)
		(1.84357542 0.11499454 0.10000000)
		(1.86033520 0.09919300 0.10000000)
		(1.87709497 0.08290597 0.10000000)
		(1.89385475 0.06621319 0.10000000)
		(1.91061453 0.04919635 0.10000000)
		(1.92737430 0.03193872 0.10000000)
		(1.94413408 0.01452478 0.10000000)
		(1.96089385 -0.00296025 0.10000000)
		(1.97765363 -0.02043079 0.10000000)
		(1.99441341 -0.03780134 0.10000000)
		(2.01117318 -0.05498687 0.10000000)
		(2.02793296 -0.07190329 0.10000000)
		(2.04469274 -0.08846780 0.10000000)
		(2.06145251 -0.10459933 0.10000000)
		(2.07821229 -0.12021892 0.10000000)
		(2.09497207 -0.13525013 0.10000000)
		(2.11173184 -0.14961939 0.10000000)
		(2.12849162 -0.16325638 0.10000000)
		(2.14525140 -0.17609435 0.10000000)
		(2.16201117 -0.18807048 0.10000000)
		(2.17877095 -0.19912614 0.10000000)
		(2.19553073 -0.20920723 0.10000000)
		(2.21229050 -0.21826442 0.10000000)
		(2.22905028 -0.22625336 0.10000000)
		(2.24581006 -0.23313496 0.10000000)
		(2.26256983 -0.23887555 0.10000000)
		(2.27932961 -0.24344702 0.10000000)
		(2.29608939 -0.24682700 0.10000000)
		(2.31284916 -0.24899895 0.10000000)
		(2.32960894 -0.24995224 0.10000000)
		(2.34636872 -0.24968221 0.10000000)
		(2.36312849 -0.24819017 0.10000000)
		(2.37988827 -0.24548343 0.10000000)
		(2.39664804 -0.24157523 0.10000000)
		(2.41340782 -0.23648470 0.10000000)
		(2.43016760 -0.23023676 0.10000000)
		(2.44692737 -0.22286199 0.10000000)
		(2.46368715 -0.21439648 0.10000000)
		(2.48044693 -0.20488166 0.10000000)
		(2.49720670 -0.19436410 0.10000000)
		(2.51396648 -0.18289527 0.10000000)
		(2.53072626 -0.17053131 0.10000000)
		(2.54748603 -0.15733273 0.10000000)
		(2.56424581 -0.14336413 0.10000000)
		(2.58100559 -0.12869386 0.10000000)
		(2.59776536 -0.11339374 0.10000000)
		(2.61452514 -0.09753864 0.10000000)
		(2.63128492 -0.08120616 0.10000000)
		(2.64804469 -0.06447625 0.10000000)
		(2.66480447 -0.04743076 0.10000000)
		(2.68156425 -0.03015315 0.10000000)
		(2.69832402 -0.01272795 0.10000000)
		(2.71508380 0.00475954 0.10000000)
		(2.73184358 0.02222373 0.10000000)
		(2.74860335 0.03957916 0.10000000)
		(2.76536313 0.05674088 0.10000000)
		(2.78212291 0.07362489 0.10000000)
		(2.79888268 0.09014856 0.10000000)
		(2.81564246 0.10623103 0.10000000)
		(2.83240223 0.12179358 0.10000000)
		(2.84916201 0.13676004 0.10000000)
		(2.86592179 0.15105716 0.10000000)
		(2.88268156 0.16461497 0.10000000)
		(2.89944134 0.17736712 0.10000000)
		(2.91620112 0.18925119 0.10000000)
		(2.93296089 0.20020902 0.10000000)
		(2.95166480 0.20658725 0.10000000)
		(2.97036872 0.21229409 0.10000000)
		(2.98907263 0.21732953 0.10000000)
		(3.00777654 0.22169359 0.10000000)
		(3.02648045 0.22538625 0.10000000)
		(3.04518436 0.22840752 0.10000000)
		(3.06388827 0.23075739 0.10000000)
		(3.08259218 0.23243587 0.10000000)
		(3.10129609 0.23344296 0.10000000)
		(3.12000000 0.23377866 0.10000000)
		(3.14000000 0.23377866 0.10000000)
		(3.16000000 0.23377866 0.10000000)
		(3.18000000 0.23377866 0.10000000)
		(3.20000000 0.23377866 0.10000000)
		(3.22000000 0.23377866 0.10000000)
		(3.24000000 0.23377866 0.10000000)
		(3.26000000 0.23377866 0.10000000)
		(3.28000000 0.23377866 0.10000000)
		(3.30000000 0.23377866 0.10000000)
		(3.32000000 0.23377866 0.10000000)
		(3.34000000 0.23377866 0.10000000)
		(3.36000000 0.23377866 0.10000000)
		(3.38000000 0.23377866 0.10000000)
		(3.40000000 0.23377866 0.10000000)
		(3.42000000 0.23377866 0.10000000)
		(3.44000000 0.23377866 0.10000000)
		(3.46000000 0.23377866 0.10000000)
		(3.48000000 0.23377866 0.10000000)
		(3.50000000 0.23377866 0.10000000)
		(3.52000000 0.23377866 0.10000000)
		(3.54000000 0.23377866 0.10000000)
		(3.56000000 0.23377866 0.10000000)
		(3.58000000 0.23377866 0.10000000)
		(3.60000000 0.23377866 0.10000000)
		(3.62000000 0.23377866 0.10000000)
		(3.64000000 0.23377866 0.10000000)
		(3.66000000 0.23377866 0.10000000)
		(3.68000000 0.23377866 0.10000000)
		(3.70000000 0.23377866 0.10000000)
		(3.72000000 0.23377866 0.10000000)
		(3.74000000 0.23377866 0.10000000)
		(3.76000000 0.23377866 0.10000000)
		(3.78000000 0.23377866 0.10000000)
		(3.80000000 0.23377866 0.10000000)
		(3.82000000 0.23377866 0.10000000)
		(3.84000000 0.23377866 0.10000000)
		(3.86000000 0.23377866 0.10000000)
		(3.88000000 0.23377866 0.10000000)
		(3.90000000 0.23377866 0.10000000)
		(3.92000000 0.23377866 0.10000000)
		(3.94000000 0.23377866 0.10000000)
		(3.96000000 0.23377866 0.10000000)
		(3.98000000 0.23377866 0.10000000)
		(4.00000000 0.23377866 0.10000000)
	)
	polyLine 3 2
	(
		(-1.00000000 0.73722750 0.00000000)
		(-0.98000000 0.73707691 0.00000000)
		(-0.96000000 0.73692631 0.00000000)
		(-0.94000000 0.73677572 0.00000000)
		(-0.92000000 0.73662513 0.00000000)
		(-0.90000000 0.73647453 0.00000000)
		(-0.88000000 0.73632394 0.00000000)
		(-0.86000000 0.73617335 0.00000000)
		(-0.84000000 0.73602275 0.00000000)
		(-0.82000000 0.73587216 0.00000000)
		(-0.80000000 0.73572157 0.00000000)
		(-0.78000000 0.73557097 0.00000000)
		(-0.76000000 0.73542038 0.00000000)
		(-0.74000000 0.73526979 0.00000000)
		(-0.72000000 0.73511919 0.00000000)
		(-0.70000000 0.73496860 0.00000000)
		(-0.68000000 0.73481800 0.00000000)
		(-0.66000000 0.73466741 0.00000000)
		(-0.64000000 0.73451682 0.00000000)
		(-0.62000000 0.73436622 0.00000000)
		(-0.60000000 0.73421563 0.00000000)
		(-0.58000000 0.73406504 0.00000000)
		(-0.56000000 0.73391444 0.00000000)
		(-0.54000000 0.73376385 0.00000000)
		(-0.52000000 0.73361326 0.00000000)
		(-0.50000000 0.73346266 0.00000000)
		(-0.48000000 0.73331207 0.00000000)
		(-0.46000000 0.73316148 0.00000000)
		(-0.44000000 0.73301088 0.00000000)
		(-0.42000000 0.73286029 0.00000000)
		(-0.40000000 0.73270970 0.00000000)
		(-0.38000000 0.73255910 0.00000000)
		(-0.36000000 0.73240851 0.00000000)
		(-0.34000000 0.73225792 0.00000000)
		(-0.32000000 0.73210732 0.00000000)
		(-0.30000000 0.73195673 0.00000000)
		(-0.28000000 0.73180614 0.00000000)
		(-0.26000000 0.73165554 0.00000000)
		(-0.24000000 0.73150495 0.00000000)
		(-0.22000000 0.73135435 0.00000000)
		(-0.20000000 0.73120376 0.00000000)
		(-0.18000000 0.73105317 0.00000000)
		(-0.16000000 0.73090257 0.00000000)
		(-0.14000000 0.73075198 0.00000000)
		(-0.12000000 0.73060139 0.00000000)
		(-0.10000000 0.73045079 0.00000000)
		(-0.08162011 0.73026337 0.00000000)
		(-0.06324022 0.73037698 0.00000000)
		(-0.04486034 0.73079161 0.00000000)
		(-0.02648045 0.73150728 0.00000000)
		(-0.00810056 0.73252398 0.00000000)
		(0.01027933 0.73384171 0.00000000)
		(0.02865922 0.73546048 0.00000000)
		(0.04703911 0.73738027 0.00000000)
		(0.06541899 0.73960109 0.00000000)
		(0.08379888 0.74212295 0.00000000)
		(0.10055866 0.74104222 0.00000000)
		(0.11731844 0.73878177 0.00000000)
		(0.13407821 0.73535267 0.00000000)
		(0.15083799 0.73077170 0.00000000)
		(0.16759777 0.72506127 0.00000000)
		(0.18435754 0.71824934 0.00000000)
		(0.20111732 0.71036924 0.00000000)
		(0.21787709 0.70145955 0.00000000)
		(0.23463687 0.69156386 0.00000000)
		(0.25139665 0.68073062 0.00000000)
		(0.26815642 0.66901283 0.00000000)
		(0.28491620 0.65646786 0.00000000)
		(0.30167598 0.64315709 0.00000000)
		(0.31843575 0.62914568 0.00000000)
		(0.33519553 0.61450220 0.00000000)
		(0.35195531 0.59929832 0.00000000)
		(0.36871508 0.58360845 0.00000000)
		(0.38547486 0.56750937 0.00000000)
		(0.40223464 0.55107989 0.00000000)
		(0.41899441 0.53440042 0.00000000)
		(0.43575419 0.51755258 0.00000000)
		(0.45251397 0.50061883 0.00000000)
		(0.46927374 0.48368206 0.00000000)
		(0.48603352 0.46682514 0.00000000)
		(0.50279330 0.45013060 0.00000000)
		(0.51955307 0.43368013 0.00000000)
		(0.53631285 0.41755424 0.00000000)
		(0.55307263 0.40183186 0.00000000)
		(0.56983240 0.38658994 0.00000000)
		(0.58659218 0.37190308 0.00000000)
		(0.60335196 0.35784315 0.00000000)
		(0.62011173 0.34447897 0.00000000)
		(0.63687151 0.33187595 0.00000000)
		(0.65363128 0.32009578 0.00000000)
		(0.67039106 0.30919609 0.00000000)
		(0.68715084 0.29923025 0.00000000)
		(0.70391061 0.29024702 0.00000000)
		(0.72067039 0.28229037 0.00000000)
		(0.73743017 0.27539925 0.00000000)
		(0.75418994 0.26960737 0.00000000)
		(0.77094972 0.26494310 0.00000000)
		(0.78770950 0.26142924 0.00000000)
		(0.80446927 0.25908302 0.00000000)
		(0.82122905 0.25791589 0.00000000)
		(0.83798883 0.25793359 0.00000000)
		(0.85474860 0.25913601 0.00000000)
		(0.87150838 0.26151729 0.00000000)
		(0.88826816 0.26506575 0.00000000)
		(0.90502793 0.26976404 0.00000000)
		(0.92178771 0.27558916 0.00000000)
		(0.93854749 0.28251260 0.00000000)
		(0.95530726 0.29050048 0.00000000)
		(0.97206704 0.29951370 0.00000000)
		(0.98882682 0.30950814 0.00000000)
		(1.00558659 0.32043490 0.00000000)
		(1.02234637 0.33224049 0.00000000)
		(1.03910615 0.34486714 0.00000000)
		(1.05586592 0.35825305 0.00000000)
		(1.07262570 0.37233270 0.00000000)
		(1.08938547 0.38703718 0.00000000)
		(1.10614525 0.40229454 0.00000000)
		(1.12290503 0.41803008 0.00000000)
		(1.13966480 0.43416681 0.00000000)
		(1.15642458 0.45062574 0.00000000)
		(1.17318436 0.46732632 0.00000000)
		(1.18994413 0.48418681 0.00000000)
		(1.20670391 0.50112470 0.00000000)
		(1.22346369 0.51805708 0.00000000)
		(1.24022346 0.53490109 0.00000000)
		(1.25698324 0.55157428 0.00000000)
		(1.27374302 0.56799505 0.00000000)
		(1.29050279 0.58408304 0.00000000)
		(1.30726257 0.59975951 0.00000000)
		(1.32402235 0.61494773 0.00000000)
		(1.34078212 0.62957337 0.00000000)
		(1.35754190 0.64356485 0.00000000)
		(1.37430168 0.65685368 0.00000000)
		(1.39106145 0.66937484 0.00000000)
		(1.40782123 0.68106703 0.00000000)
		(1.42458101 0.69187304 0.00000000)
		(1.44134078 0.70173997 0.00000000)
		(1.45810056 0.71061954 0.00000000)
		(1.47486034 0.71846829 0.00000000)
		(1.49162011 0.72524780 0.00000000)
		(1.50837989 0.73092490 0.00000000)
		(1.52513966 0.73547179 0.00000000)
		(1.54189944 0.73886623 0.00000000)
		(1.55865922 0.74109160 0.00000000)
		(1.57541899 0.74213700 0.00000000)
		(1.59217877 0.74199733 0.00000000)
		(1.60893855 0.74067327 0.00000000)
		(1.62569832 0.73817130 0.00000000)
		(1.64245810 0.73450365 0.00000000)
		(1.65921788 0.72968829 0.00000000)
		(1.67597765 0.72374878 0.00000000)
		(1.69273743 0.71671419 0.00000000)
		(1.70949721 0.70861895 0.00000000)
		(1.72625698 0.69950268 0.00000000)
		(1.74301676 0.68940999 0.00000000)
		(1.75977654 0.67839028 0.00000000)
		(1.77653631 0.66649749 0.00000000)
		(1.79329609 0.65378982 0.00000000)
		(1.81005587 0.64032947 0.00000000)
		(1.82681564 0.62618231 0.00000000)
		(1.84357542 0.61141758 0.00000000)
		(1.86033520 0.59610755 0.00000000)
		(1.87709497 0.58032714 0.00000000)
		(1.89385475 0.56415360 0.00000000)
		(1.91061453 0.54766607 0.00000000)
		(1.92737430 0.53094525 0.00000000)
		(1.94413408 0.51407298 0.00000000)
		(1.96089385 0.49713183 0.00000000)
		(1.97765363 0.48020472 0.00000000)
		(1.99441341 0.46337449 0.00000000)
		(2.01117318 0.44672352 0.00000000)
		(2.02793296 0.43033329 0.00000000)
		(2.04469274 0.41428403 0.00000000)
		(2.06145251 0.39865429 0.00000000)
		(2.07821229 0.38352055 0.00000000)
		(2.09497207 0.36895690 0.00000000)
		(2.11173184 0.35503460 0.00000000)
		(2.12849162 0.34182179 0.00000000)
		(2.14525140 0.32938315 0.00000000)
		(2.16201117 0.31777955 0.00000000)
		(2.17877095 0.30706778 0.00000000)
		(2.19553073 0.29730026 0.00000000)
		(2.21229050 0.28852481 0.00000000)
		(2.22905028 0.28078437 0.00000000)
		(2.24581006 0.27411682 0.00000000)
		(2.26256983 0.26855480 0.00000000)
		(2.27932961 0.26412552 0.00000000)
		(2.29608939 0.26085068 0.00000000)
		(2.31284916 0.25874628 0.00000000)
		(2.32960894 0.25782265 0.00000000)
		(2.34636872 0.25808428 0.00000000)
		(2.36312849 0.25952991 0.00000000)
		(2.37988827 0.26215246 0.00000000)
		(2.39664804 0.26593909 0.00000000)
		(2.41340782 0.27087127 0.00000000)
		(2.43016760 0.27692487 0.00000000)
		(2.44692737 0.28407024 0.00000000)
		(2.46368715 0.29227243 0.00000000)
		(2.48044693 0.30149129 0.00000000)
		(2.49720670 0.31168170 0.00000000)
		(2.51396648 0.32279378 0.00000000)
		(2.53072626 0.33477315 0.00000000)
		(2.54748603 0.34756118 0.00000000)
		(2.56424581 0.36109529 0.00000000)